Note: Starting true gmin stepping
Trying gmin =   1.0000E-03 Note: One successful gmin step
Trying gmin =   1.0000E-04 Note: One successful gmin step
Trying gmin =   1.0000E-05 Warning: Further gmin increment
Trying gmin =   5.6234E-05 Note: One successful gmin step
Trying gmin =   2.3714E-05 Warning: Further gmin increment
Trying gmin =   4.5316E-05 Note: One successful gmin step
Trying gmin =   3.2781E-05 Note: One successful gmin step
Trying gmin =   2.0169E-05 Note: One successful gmin step
Trying gmin =   9.7338E-06 Warning: Further gmin increment
Trying gmin =   1.6811E-05 Note: One successful gmin step
Trying gmin =   1.2792E-05 Note: One successful gmin step
Trying gmin =   8.4909E-06 Note: One successful gmin step
Trying gmin =   5.6361E-06 Note: One successful gmin step
Trying gmin =   3.0480E-06 Note: One successful gmin step
Trying gmin =   1.2122E-06 Note: One successful gmin step
Trying gmin =   3.0400E-07 Note: One successful gmin step
Trying gmin =   3.8182E-08 Note: One successful gmin step
Trying gmin =   3.8182E-09 Note: One successful gmin step
Trying gmin =   3.8182E-10 Note: One successful gmin step
Trying gmin =   3.8182E-11 Note: One successful gmin step
Trying gmin =   3.8182E-12 Note: One successful gmin step
Trying gmin =   1.0000E-12 Note: One successful gmin step
Note: True gmin stepping completed
******
** ngspice-32 : Circuit level simulation program
** The U. C. Berkeley CAD Group
** Copyright 1985-1994, Regents of the University of California.
** Copyright 2001-2020, The ngspice team.
** Please get your ngspice manual from http://ngspice.sourceforge.net/docs.html
** Please file your bug-reports at http://ngspice.sourceforge.net/bugrep.html
** Creation Date: Mon May 25 13:18:12 UTC 2020
******

Circuit: *moltiplicatore carry save

Doing analysis at TEMP = 27.000000 and TNOM = 27.000000


Initial Transient Solution
--------------------------

Node                                   Voltage
----                                   -------
xmcs32.xand_level0.xand0.6          0.00380259
xx0                                          1
xmcs32.xand_level0.xand0.7          0.00761216
xy0                                          1
vcc                                          1
xout0                                 0.998509
xmcs32.xand_level0.xand1.6          0.00380259
xx1                                          1
xmcs32.xand_level0.xand1.7          0.00761216
xmcs32.0out1                            0.9985
xmcs32.xand_level0.xand2.6          0.00380259
xx2                                          1
xmcs32.xand_level0.xand2.7          0.00761216
xmcs32.0out2                            0.9985
xmcs32.xand_level0.xand3.6          0.00380259
xx3                                          1
xmcs32.xand_level0.xand3.7          0.00761216
xmcs32.0out3                            0.9985
xmcs32.xand_level0.xand4.6          0.00380259
xx4                                          1
xmcs32.xand_level0.xand4.7          0.00761216
xmcs32.0out4                            0.9985
xmcs32.xand_level0.xand5.6          0.00380259
xx5                                          1
xmcs32.xand_level0.xand5.7          0.00761216
xmcs32.0out5                            0.9985
xmcs32.xand_level0.xand6.6          0.00380259
xx6                                          1
xmcs32.xand_level0.xand6.7          0.00761216
xmcs32.0out6                            0.9985
xmcs32.xand_level0.xand7.6          0.00380259
xx7                                          1
xmcs32.xand_level0.xand7.7          0.00761216
xmcs32.0out7                            0.9985
xmcs32.xand_level0.xand8.6          0.00380259
xx8                                          1
xmcs32.xand_level0.xand8.7          0.00761216
xmcs32.0out8                            0.9985
xmcs32.xand_level0.xand9.6          0.00380259
xx9                                          1
xmcs32.xand_level0.xand9.7          0.00761216
xmcs32.0out9                            0.9985
xmcs32.xand_level0.xand10.6         0.00380259
xx10                                         1
xmcs32.xand_level0.xand10.7         0.00761216
xmcs32.0out10                           0.9985
xmcs32.xand_level0.xand11.6         0.00380259
xx11                                         1
xmcs32.xand_level0.xand11.7         0.00761216
xmcs32.0out11                           0.9985
xmcs32.xand_level0.xand12.6         0.00380259
xx12                                         1
xmcs32.xand_level0.xand12.7         0.00761216
xmcs32.0out12                           0.9985
xmcs32.xand_level0.xand13.6         0.00380259
xx13                                         1
xmcs32.xand_level0.xand13.7         0.00761216
xmcs32.0out13                           0.9985
xmcs32.xand_level0.xand14.6         0.00380259
xx14                                         1
xmcs32.xand_level0.xand14.7         0.00761216
xmcs32.0out14                           0.9985
xmcs32.xand_level0.xand15.6         0.00380259
xx15                                         1
xmcs32.xand_level0.xand15.7         0.00761216
xmcs32.0out15                           0.9985
xmcs32.xand_level0.xand16.6         0.00380259
xx16                                         1
xmcs32.xand_level0.xand16.7         0.00761216
xmcs32.0out16                           0.9985
xmcs32.xand_level0.xand17.6         0.00380259
xx17                                         1
xmcs32.xand_level0.xand17.7         0.00761216
xmcs32.0out17                           0.9985
xmcs32.xand_level0.xand18.6         0.00380259
xx18                                         1
xmcs32.xand_level0.xand18.7         0.00761216
xmcs32.0out18                           0.9985
xmcs32.xand_level0.xand19.6         0.00380259
xx19                                         1
xmcs32.xand_level0.xand19.7         0.00761216
xmcs32.0out19                           0.9985
xmcs32.xand_level0.xand20.6         0.00380259
xx20                                         1
xmcs32.xand_level0.xand20.7         0.00761216
xmcs32.0out20                           0.9985
xmcs32.xand_level0.xand21.6         0.00380259
xx21                                         1
xmcs32.xand_level0.xand21.7         0.00761216
xmcs32.0out21                           0.9985
xmcs32.xand_level0.xand22.6         0.00380259
xx22                                         1
xmcs32.xand_level0.xand22.7         0.00761216
xmcs32.0out22                           0.9985
xmcs32.xand_level0.xand23.6         0.00380259
xx23                                         1
xmcs32.xand_level0.xand23.7         0.00761216
xmcs32.0out23                           0.9985
xmcs32.xand_level0.xand24.6         0.00380259
xx24                                         1
xmcs32.xand_level0.xand24.7         0.00761216
xmcs32.0out24                           0.9985
xmcs32.xand_level0.xand25.6         0.00380259
xx25                                         1
xmcs32.xand_level0.xand25.7         0.00761216
xmcs32.0out25                           0.9985
xmcs32.xand_level0.xand26.6         0.00380259
xx26                                         1
xmcs32.xand_level0.xand26.7         0.00761216
xmcs32.0out26                           0.9985
xmcs32.xand_level0.xand27.6         0.00380259
xx27                                         1
xmcs32.xand_level0.xand27.7         0.00761216
xmcs32.0out27                           0.9985
xmcs32.xand_level0.xand28.6         0.00380259
xx28                                         1
xmcs32.xand_level0.xand28.7         0.00761216
xmcs32.0out28                           0.9985
xmcs32.xand_level0.xand29.6         0.00380259
xx29                                         1
xmcs32.xand_level0.xand29.7         0.00761216
xmcs32.0out29                           0.9985
xmcs32.xand_level0.xand30.6         0.00380259
xx30                                         1
xmcs32.xand_level0.xand30.7         0.00761216
xmcs32.0out30                           0.9985
xmcs32.xand_level0.xand31.6         0.00380259
xx31                                         1
xmcs32.xand_level0.xand31.7         0.00761216
xmcs32.0out31                           0.9985
xmcs32.xand_level1.xand0.6          0.00380259
xmcs32.xand_level1.xand0.7          0.00761216
xy1                                          1
xmcs32.1out0                            0.9985
xmcs32.xand_level1.xand1.6          0.00380259
xmcs32.xand_level1.xand1.7          0.00761216
xmcs32.1out1                            0.9985
xmcs32.xand_level1.xand2.6          0.00380259
xmcs32.xand_level1.xand2.7          0.00761216
xmcs32.1out2                            0.9985
xmcs32.xand_level1.xand3.6          0.00380259
xmcs32.xand_level1.xand3.7          0.00761216
xmcs32.1out3                            0.9985
xmcs32.xand_level1.xand4.6          0.00380259
xmcs32.xand_level1.xand4.7          0.00761216
xmcs32.1out4                            0.9985
xmcs32.xand_level1.xand5.6          0.00380259
xmcs32.xand_level1.xand5.7          0.00761216
xmcs32.1out5                            0.9985
xmcs32.xand_level1.xand6.6          0.00380259
xmcs32.xand_level1.xand6.7          0.00761216
xmcs32.1out6                            0.9985
xmcs32.xand_level1.xand7.6          0.00380259
xmcs32.xand_level1.xand7.7          0.00761216
xmcs32.1out7                            0.9985
xmcs32.xand_level1.xand8.6          0.00380259
xmcs32.xand_level1.xand8.7          0.00761216
xmcs32.1out8                            0.9985
xmcs32.xand_level1.xand9.6          0.00380259
xmcs32.xand_level1.xand9.7          0.00761216
xmcs32.1out9                            0.9985
xmcs32.xand_level1.xand10.6         0.00380259
xmcs32.xand_level1.xand10.7         0.00761216
xmcs32.1out10                           0.9985
xmcs32.xand_level1.xand11.6         0.00380259
xmcs32.xand_level1.xand11.7         0.00761216
xmcs32.1out11                           0.9985
xmcs32.xand_level1.xand12.6         0.00380259
xmcs32.xand_level1.xand12.7         0.00761216
xmcs32.1out12                           0.9985
xmcs32.xand_level1.xand13.6         0.00380259
xmcs32.xand_level1.xand13.7         0.00761216
xmcs32.1out13                           0.9985
xmcs32.xand_level1.xand14.6         0.00380259
xmcs32.xand_level1.xand14.7         0.00761216
xmcs32.1out14                           0.9985
xmcs32.xand_level1.xand15.6         0.00380259
xmcs32.xand_level1.xand15.7         0.00761216
xmcs32.1out15                           0.9985
xmcs32.xand_level1.xand16.6         0.00380259
xmcs32.xand_level1.xand16.7         0.00761216
xmcs32.1out16                           0.9985
xmcs32.xand_level1.xand17.6         0.00380259
xmcs32.xand_level1.xand17.7         0.00761216
xmcs32.1out17                           0.9985
xmcs32.xand_level1.xand18.6         0.00380259
xmcs32.xand_level1.xand18.7         0.00761216
xmcs32.1out18                           0.9985
xmcs32.xand_level1.xand19.6         0.00380259
xmcs32.xand_level1.xand19.7         0.00761216
xmcs32.1out19                           0.9985
xmcs32.xand_level1.xand20.6         0.00380259
xmcs32.xand_level1.xand20.7         0.00761216
xmcs32.1out20                           0.9985
xmcs32.xand_level1.xand21.6         0.00380259
xmcs32.xand_level1.xand21.7         0.00761216
xmcs32.1out21                           0.9985
xmcs32.xand_level1.xand22.6         0.00380259
xmcs32.xand_level1.xand22.7         0.00761216
xmcs32.1out22                           0.9985
xmcs32.xand_level1.xand23.6         0.00380259
xmcs32.xand_level1.xand23.7         0.00761216
xmcs32.1out23                           0.9985
xmcs32.xand_level1.xand24.6         0.00380259
xmcs32.xand_level1.xand24.7         0.00761216
xmcs32.1out24                           0.9985
xmcs32.xand_level1.xand25.6         0.00380259
xmcs32.xand_level1.xand25.7         0.00761216
xmcs32.1out25                           0.9985
xmcs32.xand_level1.xand26.6         0.00380259
xmcs32.xand_level1.xand26.7         0.00761216
xmcs32.1out26                           0.9985
xmcs32.xand_level1.xand27.6         0.00380259
xmcs32.xand_level1.xand27.7         0.00761216
xmcs32.1out27                           0.9985
xmcs32.xand_level1.xand28.6         0.00380259
xmcs32.xand_level1.xand28.7         0.00761216
xmcs32.1out28                           0.9985
xmcs32.xand_level1.xand29.6         0.00380259
xmcs32.xand_level1.xand29.7         0.00761216
xmcs32.1out29                           0.9985
xmcs32.xand_level1.xand30.6         0.00380259
xmcs32.xand_level1.xand30.7         0.00761216
xmcs32.1out30                           0.9985
xmcs32.xand_level1.xand31.6         0.00380259
xmcs32.xand_level1.xand31.7         0.00761216
xmcs32.1out31                           0.9985
xmcs32.xadd_level2.xadd0.nodecon     0.000967192
xmcs32.xadd_level2.xadd0.node4     0.000483865
xmcs32.xadd_level2.xadd0.1            0.294032
xmcs32.xadd_level2.xadd0.5         3.35793e-07
xmcs32.xadd_level2.xadd0.4            0.672739
xmcs32.xadd_level2.xadd0.2            0.997836
xmcs32.xadd_level2.xadd0.3         0.000432563
xmcs32.xadd_level2.xadd0.nodeson        0.995666
xmcs32.xadd_level2.xadd0.9            0.996772
xmcs32.xadd_level2.xadd0.7         0.000889074
xmcs32.xadd_level2.xadd0.8            0.995666
xmcs32.xadd_level2.xadd0.6           0.0017778
xmcs32.2cout0                         0.999131
xout1                               0.00527401
xmcs32.xadd_level2.xadd1.nodecon     0.000967192
xmcs32.xadd_level2.xadd1.node4     0.000483865
xmcs32.xadd_level2.xadd1.1            0.294032
xmcs32.xadd_level2.xadd1.5         3.35793e-07
xmcs32.xadd_level2.xadd1.4            0.672739
xmcs32.xadd_level2.xadd1.2            0.997836
xmcs32.xadd_level2.xadd1.3         0.000432563
xmcs32.xadd_level2.xadd1.nodeson        0.995666
xmcs32.xadd_level2.xadd1.9            0.996772
xmcs32.xadd_level2.xadd1.7         0.000889074
xmcs32.xadd_level2.xadd1.8            0.995666
xmcs32.xadd_level2.xadd1.6           0.0017778
xmcs32.2cout1                         0.999131
xmcs32.2sum1                        0.00527646
xmcs32.xadd_level2.xadd2.nodecon     0.000967192
xmcs32.xadd_level2.xadd2.node4     0.000483865
xmcs32.xadd_level2.xadd2.1            0.294032
xmcs32.xadd_level2.xadd2.5         3.35793e-07
xmcs32.xadd_level2.xadd2.4            0.672739
xmcs32.xadd_level2.xadd2.2            0.997836
xmcs32.xadd_level2.xadd2.3         0.000432563
xmcs32.xadd_level2.xadd2.nodeson        0.995666
xmcs32.xadd_level2.xadd2.9            0.996772
xmcs32.xadd_level2.xadd2.7         0.000889074
xmcs32.xadd_level2.xadd2.8            0.995666
xmcs32.xadd_level2.xadd2.6           0.0017778
xmcs32.2cout2                         0.999131
xmcs32.2sum2                        0.00527646
xmcs32.xadd_level2.xadd3.nodecon     0.000967192
xmcs32.xadd_level2.xadd3.node4     0.000483865
xmcs32.xadd_level2.xadd3.1            0.294032
xmcs32.xadd_level2.xadd3.5         3.35793e-07
xmcs32.xadd_level2.xadd3.4            0.672739
xmcs32.xadd_level2.xadd3.2            0.997836
xmcs32.xadd_level2.xadd3.3         0.000432563
xmcs32.xadd_level2.xadd3.nodeson        0.995666
xmcs32.xadd_level2.xadd3.9            0.996772
xmcs32.xadd_level2.xadd3.7         0.000889074
xmcs32.xadd_level2.xadd3.8            0.995666
xmcs32.xadd_level2.xadd3.6           0.0017778
xmcs32.2cout3                         0.999131
xmcs32.2sum3                        0.00527646
xmcs32.xadd_level2.xadd4.nodecon     0.000967192
xmcs32.xadd_level2.xadd4.node4     0.000483865
xmcs32.xadd_level2.xadd4.1            0.294032
xmcs32.xadd_level2.xadd4.5         3.35793e-07
xmcs32.xadd_level2.xadd4.4            0.672739
xmcs32.xadd_level2.xadd4.2            0.997836
xmcs32.xadd_level2.xadd4.3         0.000432563
xmcs32.xadd_level2.xadd4.nodeson        0.995666
xmcs32.xadd_level2.xadd4.9            0.996772
xmcs32.xadd_level2.xadd4.7         0.000889074
xmcs32.xadd_level2.xadd4.8            0.995666
xmcs32.xadd_level2.xadd4.6           0.0017778
xmcs32.2cout4                         0.999131
xmcs32.2sum4                        0.00527646
xmcs32.xadd_level2.xadd5.nodecon     0.000967192
xmcs32.xadd_level2.xadd5.node4     0.000483865
xmcs32.xadd_level2.xadd5.1            0.294032
xmcs32.xadd_level2.xadd5.5         3.35793e-07
xmcs32.xadd_level2.xadd5.4            0.672739
xmcs32.xadd_level2.xadd5.2            0.997836
xmcs32.xadd_level2.xadd5.3         0.000432563
xmcs32.xadd_level2.xadd5.nodeson        0.995666
xmcs32.xadd_level2.xadd5.9            0.996772
xmcs32.xadd_level2.xadd5.7         0.000889074
xmcs32.xadd_level2.xadd5.8            0.995666
xmcs32.xadd_level2.xadd5.6           0.0017778
xmcs32.2cout5                         0.999131
xmcs32.2sum5                        0.00527646
xmcs32.xadd_level2.xadd6.nodecon     0.000967192
xmcs32.xadd_level2.xadd6.node4     0.000483865
xmcs32.xadd_level2.xadd6.1            0.294032
xmcs32.xadd_level2.xadd6.5         3.35793e-07
xmcs32.xadd_level2.xadd6.4            0.672739
xmcs32.xadd_level2.xadd6.2            0.997836
xmcs32.xadd_level2.xadd6.3         0.000432563
xmcs32.xadd_level2.xadd6.nodeson        0.995666
xmcs32.xadd_level2.xadd6.9            0.996772
xmcs32.xadd_level2.xadd6.7         0.000889074
xmcs32.xadd_level2.xadd6.8            0.995666
xmcs32.xadd_level2.xadd6.6           0.0017778
xmcs32.2cout6                         0.999131
xmcs32.2sum6                        0.00527646
xmcs32.xadd_level2.xadd7.nodecon     0.000967192
xmcs32.xadd_level2.xadd7.node4     0.000483865
xmcs32.xadd_level2.xadd7.1            0.294032
xmcs32.xadd_level2.xadd7.5         3.35793e-07
xmcs32.xadd_level2.xadd7.4            0.672739
xmcs32.xadd_level2.xadd7.2            0.997836
xmcs32.xadd_level2.xadd7.3         0.000432563
xmcs32.xadd_level2.xadd7.nodeson        0.995666
xmcs32.xadd_level2.xadd7.9            0.996772
xmcs32.xadd_level2.xadd7.7         0.000889074
xmcs32.xadd_level2.xadd7.8            0.995666
xmcs32.xadd_level2.xadd7.6           0.0017778
xmcs32.2cout7                         0.999131
xmcs32.2sum7                        0.00527646
xmcs32.xadd_level2.xadd8.nodecon     0.000967192
xmcs32.xadd_level2.xadd8.node4     0.000483865
xmcs32.xadd_level2.xadd8.1            0.294032
xmcs32.xadd_level2.xadd8.5         3.35793e-07
xmcs32.xadd_level2.xadd8.4            0.672739
xmcs32.xadd_level2.xadd8.2            0.997836
xmcs32.xadd_level2.xadd8.3         0.000432563
xmcs32.xadd_level2.xadd8.nodeson        0.995666
xmcs32.xadd_level2.xadd8.9            0.996772
xmcs32.xadd_level2.xadd8.7         0.000889074
xmcs32.xadd_level2.xadd8.8            0.995666
xmcs32.xadd_level2.xadd8.6           0.0017778
xmcs32.2cout8                         0.999131
xmcs32.2sum8                        0.00527646
xmcs32.xadd_level2.xadd9.nodecon     0.000967192
xmcs32.xadd_level2.xadd9.node4     0.000483865
xmcs32.xadd_level2.xadd9.1            0.294032
xmcs32.xadd_level2.xadd9.5         3.35793e-07
xmcs32.xadd_level2.xadd9.4            0.672739
xmcs32.xadd_level2.xadd9.2            0.997836
xmcs32.xadd_level2.xadd9.3         0.000432563
xmcs32.xadd_level2.xadd9.nodeson        0.995666
xmcs32.xadd_level2.xadd9.9            0.996772
xmcs32.xadd_level2.xadd9.7         0.000889074
xmcs32.xadd_level2.xadd9.8            0.995666
xmcs32.xadd_level2.xadd9.6           0.0017778
xmcs32.2cout9                         0.999131
xmcs32.2sum9                        0.00527646
xmcs32.xadd_level2.xadd10.nodecon     0.000967192
xmcs32.xadd_level2.xadd10.node4     0.000483865
xmcs32.xadd_level2.xadd10.1           0.294032
xmcs32.xadd_level2.xadd10.5        3.35793e-07
xmcs32.xadd_level2.xadd10.4           0.672739
xmcs32.xadd_level2.xadd10.2           0.997836
xmcs32.xadd_level2.xadd10.3        0.000432563
xmcs32.xadd_level2.xadd10.nodeson        0.995666
xmcs32.xadd_level2.xadd10.9           0.996772
xmcs32.xadd_level2.xadd10.7        0.000889074
xmcs32.xadd_level2.xadd10.8           0.995666
xmcs32.xadd_level2.xadd10.6          0.0017778
xmcs32.2cout10                        0.999131
xmcs32.2sum10                       0.00527646
xmcs32.xadd_level2.xadd11.nodecon     0.000967192
xmcs32.xadd_level2.xadd11.node4     0.000483865
xmcs32.xadd_level2.xadd11.1           0.294032
xmcs32.xadd_level2.xadd11.5        3.35793e-07
xmcs32.xadd_level2.xadd11.4           0.672739
xmcs32.xadd_level2.xadd11.2           0.997836
xmcs32.xadd_level2.xadd11.3        0.000432563
xmcs32.xadd_level2.xadd11.nodeson        0.995666
xmcs32.xadd_level2.xadd11.9           0.996772
xmcs32.xadd_level2.xadd11.7        0.000889074
xmcs32.xadd_level2.xadd11.8           0.995666
xmcs32.xadd_level2.xadd11.6          0.0017778
xmcs32.2cout11                        0.999131
xmcs32.2sum11                       0.00527646
xmcs32.xadd_level2.xadd12.nodecon     0.000967192
xmcs32.xadd_level2.xadd12.node4     0.000483865
xmcs32.xadd_level2.xadd12.1           0.294032
xmcs32.xadd_level2.xadd12.5        3.35793e-07
xmcs32.xadd_level2.xadd12.4           0.672739
xmcs32.xadd_level2.xadd12.2           0.997836
xmcs32.xadd_level2.xadd12.3        0.000432563
xmcs32.xadd_level2.xadd12.nodeson        0.995666
xmcs32.xadd_level2.xadd12.9           0.996772
xmcs32.xadd_level2.xadd12.7        0.000889074
xmcs32.xadd_level2.xadd12.8           0.995666
xmcs32.xadd_level2.xadd12.6          0.0017778
xmcs32.2cout12                        0.999131
xmcs32.2sum12                       0.00527646
xmcs32.xadd_level2.xadd13.nodecon     0.000967192
xmcs32.xadd_level2.xadd13.node4     0.000483865
xmcs32.xadd_level2.xadd13.1           0.294032
xmcs32.xadd_level2.xadd13.5        3.35793e-07
xmcs32.xadd_level2.xadd13.4           0.672739
xmcs32.xadd_level2.xadd13.2           0.997836
xmcs32.xadd_level2.xadd13.3        0.000432563
xmcs32.xadd_level2.xadd13.nodeson        0.995666
xmcs32.xadd_level2.xadd13.9           0.996772
xmcs32.xadd_level2.xadd13.7        0.000889074
xmcs32.xadd_level2.xadd13.8           0.995666
xmcs32.xadd_level2.xadd13.6          0.0017778
xmcs32.2cout13                        0.999131
xmcs32.2sum13                       0.00527646
xmcs32.xadd_level2.xadd14.nodecon     0.000967192
xmcs32.xadd_level2.xadd14.node4     0.000483865
xmcs32.xadd_level2.xadd14.1           0.294032
xmcs32.xadd_level2.xadd14.5        3.35793e-07
xmcs32.xadd_level2.xadd14.4           0.672739
xmcs32.xadd_level2.xadd14.2           0.997836
xmcs32.xadd_level2.xadd14.3        0.000432563
xmcs32.xadd_level2.xadd14.nodeson        0.995666
xmcs32.xadd_level2.xadd14.9           0.996772
xmcs32.xadd_level2.xadd14.7        0.000889074
xmcs32.xadd_level2.xadd14.8           0.995666
xmcs32.xadd_level2.xadd14.6          0.0017778
xmcs32.2cout14                        0.999131
xmcs32.2sum14                       0.00527646
xmcs32.xadd_level2.xadd15.nodecon     0.000967192
xmcs32.xadd_level2.xadd15.node4     0.000483865
xmcs32.xadd_level2.xadd15.1           0.294032
xmcs32.xadd_level2.xadd15.5        3.35793e-07
xmcs32.xadd_level2.xadd15.4           0.672739
xmcs32.xadd_level2.xadd15.2           0.997836
xmcs32.xadd_level2.xadd15.3        0.000432563
xmcs32.xadd_level2.xadd15.nodeson        0.995666
xmcs32.xadd_level2.xadd15.9           0.996772
xmcs32.xadd_level2.xadd15.7        0.000889074
xmcs32.xadd_level2.xadd15.8           0.995666
xmcs32.xadd_level2.xadd15.6          0.0017778
xmcs32.2cout15                        0.999131
xmcs32.2sum15                       0.00527646
xmcs32.xadd_level2.xadd16.nodecon     0.000967192
xmcs32.xadd_level2.xadd16.node4     0.000483865
xmcs32.xadd_level2.xadd16.1           0.294032
xmcs32.xadd_level2.xadd16.5        3.35793e-07
xmcs32.xadd_level2.xadd16.4           0.672739
xmcs32.xadd_level2.xadd16.2           0.997836
xmcs32.xadd_level2.xadd16.3        0.000432563
xmcs32.xadd_level2.xadd16.nodeson        0.995666
xmcs32.xadd_level2.xadd16.9           0.996772
xmcs32.xadd_level2.xadd16.7        0.000889074
xmcs32.xadd_level2.xadd16.8           0.995666
xmcs32.xadd_level2.xadd16.6          0.0017778
xmcs32.2cout16                        0.999131
xmcs32.2sum16                       0.00527646
xmcs32.xadd_level2.xadd17.nodecon     0.000967192
xmcs32.xadd_level2.xadd17.node4     0.000483865
xmcs32.xadd_level2.xadd17.1           0.294032
xmcs32.xadd_level2.xadd17.5        3.35793e-07
xmcs32.xadd_level2.xadd17.4           0.672739
xmcs32.xadd_level2.xadd17.2           0.997836
xmcs32.xadd_level2.xadd17.3        0.000432563
xmcs32.xadd_level2.xadd17.nodeson        0.995666
xmcs32.xadd_level2.xadd17.9           0.996772
xmcs32.xadd_level2.xadd17.7        0.000889074
xmcs32.xadd_level2.xadd17.8           0.995666
xmcs32.xadd_level2.xadd17.6          0.0017778
xmcs32.2cout17                        0.999131
xmcs32.2sum17                       0.00527646
xmcs32.xadd_level2.xadd18.nodecon     0.000967192
xmcs32.xadd_level2.xadd18.node4     0.000483865
xmcs32.xadd_level2.xadd18.1           0.294032
xmcs32.xadd_level2.xadd18.5        3.35793e-07
xmcs32.xadd_level2.xadd18.4           0.672739
xmcs32.xadd_level2.xadd18.2           0.997836
xmcs32.xadd_level2.xadd18.3        0.000432563
xmcs32.xadd_level2.xadd18.nodeson        0.995666
xmcs32.xadd_level2.xadd18.9           0.996772
xmcs32.xadd_level2.xadd18.7        0.000889074
xmcs32.xadd_level2.xadd18.8           0.995666
xmcs32.xadd_level2.xadd18.6          0.0017778
xmcs32.2cout18                        0.999131
xmcs32.2sum18                       0.00527646
xmcs32.xadd_level2.xadd19.nodecon     0.000967192
xmcs32.xadd_level2.xadd19.node4     0.000483865
xmcs32.xadd_level2.xadd19.1           0.294032
xmcs32.xadd_level2.xadd19.5        3.35793e-07
xmcs32.xadd_level2.xadd19.4           0.672739
xmcs32.xadd_level2.xadd19.2           0.997836
xmcs32.xadd_level2.xadd19.3        0.000432563
xmcs32.xadd_level2.xadd19.nodeson        0.995666
xmcs32.xadd_level2.xadd19.9           0.996772
xmcs32.xadd_level2.xadd19.7        0.000889074
xmcs32.xadd_level2.xadd19.8           0.995666
xmcs32.xadd_level2.xadd19.6          0.0017778
xmcs32.2cout19                        0.999131
xmcs32.2sum19                       0.00527646
xmcs32.xadd_level2.xadd20.nodecon     0.000967192
xmcs32.xadd_level2.xadd20.node4     0.000483865
xmcs32.xadd_level2.xadd20.1           0.294032
xmcs32.xadd_level2.xadd20.5        3.35793e-07
xmcs32.xadd_level2.xadd20.4           0.672739
xmcs32.xadd_level2.xadd20.2           0.997836
xmcs32.xadd_level2.xadd20.3        0.000432563
xmcs32.xadd_level2.xadd20.nodeson        0.995666
xmcs32.xadd_level2.xadd20.9           0.996772
xmcs32.xadd_level2.xadd20.7        0.000889074
xmcs32.xadd_level2.xadd20.8           0.995666
xmcs32.xadd_level2.xadd20.6          0.0017778
xmcs32.2cout20                        0.999131
xmcs32.2sum20                       0.00527646
xmcs32.xadd_level2.xadd21.nodecon     0.000967192
xmcs32.xadd_level2.xadd21.node4     0.000483865
xmcs32.xadd_level2.xadd21.1           0.294032
xmcs32.xadd_level2.xadd21.5        3.35793e-07
xmcs32.xadd_level2.xadd21.4           0.672739
xmcs32.xadd_level2.xadd21.2           0.997836
xmcs32.xadd_level2.xadd21.3        0.000432563
xmcs32.xadd_level2.xadd21.nodeson        0.995666
xmcs32.xadd_level2.xadd21.9           0.996772
xmcs32.xadd_level2.xadd21.7        0.000889074
xmcs32.xadd_level2.xadd21.8           0.995666
xmcs32.xadd_level2.xadd21.6          0.0017778
xmcs32.2cout21                        0.999131
xmcs32.2sum21                       0.00527646
xmcs32.xadd_level2.xadd22.nodecon     0.000967192
xmcs32.xadd_level2.xadd22.node4     0.000483865
xmcs32.xadd_level2.xadd22.1           0.294032
xmcs32.xadd_level2.xadd22.5        3.35793e-07
xmcs32.xadd_level2.xadd22.4           0.672739
xmcs32.xadd_level2.xadd22.2           0.997836
xmcs32.xadd_level2.xadd22.3        0.000432563
xmcs32.xadd_level2.xadd22.nodeson        0.995666
xmcs32.xadd_level2.xadd22.9           0.996772
xmcs32.xadd_level2.xadd22.7        0.000889074
xmcs32.xadd_level2.xadd22.8           0.995666
xmcs32.xadd_level2.xadd22.6          0.0017778
xmcs32.2cout22                        0.999131
xmcs32.2sum22                       0.00527646
xmcs32.xadd_level2.xadd23.nodecon     0.000967192
xmcs32.xadd_level2.xadd23.node4     0.000483865
xmcs32.xadd_level2.xadd23.1           0.294032
xmcs32.xadd_level2.xadd23.5        3.35793e-07
xmcs32.xadd_level2.xadd23.4           0.672739
xmcs32.xadd_level2.xadd23.2           0.997836
xmcs32.xadd_level2.xadd23.3        0.000432563
xmcs32.xadd_level2.xadd23.nodeson        0.995666
xmcs32.xadd_level2.xadd23.9           0.996772
xmcs32.xadd_level2.xadd23.7        0.000889074
xmcs32.xadd_level2.xadd23.8           0.995666
xmcs32.xadd_level2.xadd23.6          0.0017778
xmcs32.2cout23                        0.999131
xmcs32.2sum23                       0.00527646
xmcs32.xadd_level2.xadd24.nodecon     0.000967192
xmcs32.xadd_level2.xadd24.node4     0.000483865
xmcs32.xadd_level2.xadd24.1           0.294032
xmcs32.xadd_level2.xadd24.5        3.35793e-07
xmcs32.xadd_level2.xadd24.4           0.672739
xmcs32.xadd_level2.xadd24.2           0.997836
xmcs32.xadd_level2.xadd24.3        0.000432563
xmcs32.xadd_level2.xadd24.nodeson        0.995666
xmcs32.xadd_level2.xadd24.9           0.996772
xmcs32.xadd_level2.xadd24.7        0.000889074
xmcs32.xadd_level2.xadd24.8           0.995666
xmcs32.xadd_level2.xadd24.6          0.0017778
xmcs32.2cout24                        0.999131
xmcs32.2sum24                       0.00527646
xmcs32.xadd_level2.xadd25.nodecon     0.000967192
xmcs32.xadd_level2.xadd25.node4     0.000483865
xmcs32.xadd_level2.xadd25.1           0.294032
xmcs32.xadd_level2.xadd25.5        3.35793e-07
xmcs32.xadd_level2.xadd25.4           0.672739
xmcs32.xadd_level2.xadd25.2           0.997836
xmcs32.xadd_level2.xadd25.3        0.000432563
xmcs32.xadd_level2.xadd25.nodeson        0.995666
xmcs32.xadd_level2.xadd25.9           0.996772
xmcs32.xadd_level2.xadd25.7        0.000889074
xmcs32.xadd_level2.xadd25.8           0.995666
xmcs32.xadd_level2.xadd25.6          0.0017778
xmcs32.2cout25                        0.999131
xmcs32.2sum25                       0.00527646
xmcs32.xadd_level2.xadd26.nodecon     0.000967192
xmcs32.xadd_level2.xadd26.node4     0.000483865
xmcs32.xadd_level2.xadd26.1           0.294032
xmcs32.xadd_level2.xadd26.5        3.35793e-07
xmcs32.xadd_level2.xadd26.4           0.672739
xmcs32.xadd_level2.xadd26.2           0.997836
xmcs32.xadd_level2.xadd26.3        0.000432563
xmcs32.xadd_level2.xadd26.nodeson        0.995666
xmcs32.xadd_level2.xadd26.9           0.996772
xmcs32.xadd_level2.xadd26.7        0.000889074
xmcs32.xadd_level2.xadd26.8           0.995666
xmcs32.xadd_level2.xadd26.6          0.0017778
xmcs32.2cout26                        0.999131
xmcs32.2sum26                       0.00527646
xmcs32.xadd_level2.xadd27.nodecon     0.000967192
xmcs32.xadd_level2.xadd27.node4     0.000483865
xmcs32.xadd_level2.xadd27.1           0.294032
xmcs32.xadd_level2.xadd27.5        3.35793e-07
xmcs32.xadd_level2.xadd27.4           0.672739
xmcs32.xadd_level2.xadd27.2           0.997836
xmcs32.xadd_level2.xadd27.3        0.000432563
xmcs32.xadd_level2.xadd27.nodeson        0.995666
xmcs32.xadd_level2.xadd27.9           0.996772
xmcs32.xadd_level2.xadd27.7        0.000889074
xmcs32.xadd_level2.xadd27.8           0.995666
xmcs32.xadd_level2.xadd27.6          0.0017778
xmcs32.2cout27                        0.999131
xmcs32.2sum27                       0.00527646
xmcs32.xadd_level2.xadd28.nodecon     0.000967192
xmcs32.xadd_level2.xadd28.node4     0.000483865
xmcs32.xadd_level2.xadd28.1           0.294032
xmcs32.xadd_level2.xadd28.5        3.35793e-07
xmcs32.xadd_level2.xadd28.4           0.672739
xmcs32.xadd_level2.xadd28.2           0.997836
xmcs32.xadd_level2.xadd28.3        0.000432563
xmcs32.xadd_level2.xadd28.nodeson        0.995666
xmcs32.xadd_level2.xadd28.9           0.996772
xmcs32.xadd_level2.xadd28.7        0.000889074
xmcs32.xadd_level2.xadd28.8           0.995666
xmcs32.xadd_level2.xadd28.6          0.0017778
xmcs32.2cout28                        0.999131
xmcs32.2sum28                       0.00527646
xmcs32.xadd_level2.xadd29.nodecon     0.000967192
xmcs32.xadd_level2.xadd29.node4     0.000483865
xmcs32.xadd_level2.xadd29.1           0.294032
xmcs32.xadd_level2.xadd29.5        3.35793e-07
xmcs32.xadd_level2.xadd29.4           0.672739
xmcs32.xadd_level2.xadd29.2           0.997836
xmcs32.xadd_level2.xadd29.3        0.000432563
xmcs32.xadd_level2.xadd29.nodeson        0.995666
xmcs32.xadd_level2.xadd29.9           0.996772
xmcs32.xadd_level2.xadd29.7        0.000889074
xmcs32.xadd_level2.xadd29.8           0.995666
xmcs32.xadd_level2.xadd29.6          0.0017778
xmcs32.2cout29                        0.999131
xmcs32.2sum29                       0.00527646
xmcs32.xadd_level2.xadd30.nodecon     0.000967192
xmcs32.xadd_level2.xadd30.node4     0.000483865
xmcs32.xadd_level2.xadd30.1           0.294032
xmcs32.xadd_level2.xadd30.5        3.35793e-07
xmcs32.xadd_level2.xadd30.4           0.672739
xmcs32.xadd_level2.xadd30.2           0.997836
xmcs32.xadd_level2.xadd30.3        0.000432563
xmcs32.xadd_level2.xadd30.nodeson        0.995666
xmcs32.xadd_level2.xadd30.9           0.996772
xmcs32.xadd_level2.xadd30.7        0.000889074
xmcs32.xadd_level2.xadd30.8           0.995666
xmcs32.xadd_level2.xadd30.6          0.0017778
xmcs32.2cout30                        0.999129
xmcs32.2sum30                       0.00527646
xmcs32.xand_level3.xand0.6          0.00380259
xmcs32.xand_level3.xand0.7          0.00761216
xy2                                          1
xmcs32.3out0                          0.998503
xmcs32.xand_level3.xand1.6          0.00380259
xmcs32.xand_level3.xand1.7          0.00761216
xmcs32.3out1                          0.998503
xmcs32.xand_level3.xand2.6          0.00380259
xmcs32.xand_level3.xand2.7          0.00761216
xmcs32.3out2                          0.998503
xmcs32.xand_level3.xand3.6          0.00380259
xmcs32.xand_level3.xand3.7          0.00761216
xmcs32.3out3                          0.998503
xmcs32.xand_level3.xand4.6          0.00380259
xmcs32.xand_level3.xand4.7          0.00761216
xmcs32.3out4                          0.998503
xmcs32.xand_level3.xand5.6          0.00380259
xmcs32.xand_level3.xand5.7          0.00761216
xmcs32.3out5                          0.998503
xmcs32.xand_level3.xand6.6          0.00380259
xmcs32.xand_level3.xand6.7          0.00761216
xmcs32.3out6                          0.998503
xmcs32.xand_level3.xand7.6          0.00380259
xmcs32.xand_level3.xand7.7          0.00761216
xmcs32.3out7                          0.998503
xmcs32.xand_level3.xand8.6          0.00380259
xmcs32.xand_level3.xand8.7          0.00761216
xmcs32.3out8                          0.998503
xmcs32.xand_level3.xand9.6          0.00380259
xmcs32.xand_level3.xand9.7          0.00761216
xmcs32.3out9                          0.998503
xmcs32.xand_level3.xand10.6         0.00380259
xmcs32.xand_level3.xand10.7         0.00761216
xmcs32.3out10                         0.998503
xmcs32.xand_level3.xand11.6         0.00380259
xmcs32.xand_level3.xand11.7         0.00761216
xmcs32.3out11                         0.998503
xmcs32.xand_level3.xand12.6         0.00380259
xmcs32.xand_level3.xand12.7         0.00761216
xmcs32.3out12                         0.998503
xmcs32.xand_level3.xand13.6         0.00380259
xmcs32.xand_level3.xand13.7         0.00761216
xmcs32.3out13                         0.998503
xmcs32.xand_level3.xand14.6         0.00380259
xmcs32.xand_level3.xand14.7         0.00761216
xmcs32.3out14                         0.998503
xmcs32.xand_level3.xand15.6         0.00380259
xmcs32.xand_level3.xand15.7         0.00761216
xmcs32.3out15                         0.998503
xmcs32.xand_level3.xand16.6         0.00380259
xmcs32.xand_level3.xand16.7         0.00761216
xmcs32.3out16                         0.998503
xmcs32.xand_level3.xand17.6         0.00380259
xmcs32.xand_level3.xand17.7         0.00761216
xmcs32.3out17                         0.998503
xmcs32.xand_level3.xand18.6         0.00380259
xmcs32.xand_level3.xand18.7         0.00761216
xmcs32.3out18                         0.998503
xmcs32.xand_level3.xand19.6         0.00380259
xmcs32.xand_level3.xand19.7         0.00761216
xmcs32.3out19                         0.998503
xmcs32.xand_level3.xand20.6         0.00380259
xmcs32.xand_level3.xand20.7         0.00761216
xmcs32.3out20                         0.998503
xmcs32.xand_level3.xand21.6         0.00380259
xmcs32.xand_level3.xand21.7         0.00761216
xmcs32.3out21                         0.998503
xmcs32.xand_level3.xand22.6         0.00380259
xmcs32.xand_level3.xand22.7         0.00761216
xmcs32.3out22                         0.998503
xmcs32.xand_level3.xand23.6         0.00380259
xmcs32.xand_level3.xand23.7         0.00761216
xmcs32.3out23                         0.998503
xmcs32.xand_level3.xand24.6         0.00380259
xmcs32.xand_level3.xand24.7         0.00761216
xmcs32.3out24                         0.998503
xmcs32.xand_level3.xand25.6         0.00380259
xmcs32.xand_level3.xand25.7         0.00761216
xmcs32.3out25                         0.998503
xmcs32.xand_level3.xand26.6         0.00380259
xmcs32.xand_level3.xand26.7         0.00761216
xmcs32.3out26                         0.998503
xmcs32.xand_level3.xand27.6         0.00380259
xmcs32.xand_level3.xand27.7         0.00761216
xmcs32.3out27                         0.998503
xmcs32.xand_level3.xand28.6         0.00380259
xmcs32.xand_level3.xand28.7         0.00761216
xmcs32.3out28                         0.998503
xmcs32.xand_level3.xand29.6         0.00380259
xmcs32.xand_level3.xand29.7         0.00761216
xmcs32.3out29                         0.998503
xmcs32.xand_level3.xand30.6         0.00380259
xmcs32.xand_level3.xand30.7         0.00761216
xmcs32.3out30                           0.9985
xmcs32.xand_level3.xand31.6         0.00380259
xmcs32.xand_level3.xand31.7         0.00761216
xmcs32.3out31                           0.9985
xmcs32.xadd_level4.xadd0.nodecon      0.00860005
xmcs32.xadd_level4.xadd0.node4     4.39746e-07
xmcs32.xadd_level4.xadd0.1            0.995875
xmcs32.xadd_level4.xadd0.5          0.00429589
xmcs32.xadd_level4.xadd0.4            0.280029
xmcs32.xadd_level4.xadd0.2            0.998884
xmcs32.xadd_level4.xadd0.3         0.000522314
xmcs32.xadd_level4.xadd0.nodeson        0.997765
xmcs32.xadd_level4.xadd0.9            0.998884
xmcs32.xadd_level4.xadd0.7            0.673649
xmcs32.xadd_level4.xadd0.8            0.998335
xmcs32.xadd_level4.xadd0.6            0.731428
xmcs32.4cout0                         0.998961
xout2                               0.00505239
xmcs32.xadd_level4.xadd1.nodecon      0.00860005
xmcs32.xadd_level4.xadd1.node4     4.39746e-07
xmcs32.xadd_level4.xadd1.1            0.995875
xmcs32.xadd_level4.xadd1.5          0.00429589
xmcs32.xadd_level4.xadd1.4            0.280029
xmcs32.xadd_level4.xadd1.2            0.998884
xmcs32.xadd_level4.xadd1.3         0.000522314
xmcs32.xadd_level4.xadd1.nodeson        0.997765
xmcs32.xadd_level4.xadd1.9            0.998884
xmcs32.xadd_level4.xadd1.7            0.673649
xmcs32.xadd_level4.xadd1.8            0.998335
xmcs32.xadd_level4.xadd1.6            0.731428
xmcs32.4cout1                         0.998961
xmcs32.4sum1                        0.00505484
xmcs32.xadd_level4.xadd2.nodecon      0.00860005
xmcs32.xadd_level4.xadd2.node4     4.39746e-07
xmcs32.xadd_level4.xadd2.1            0.995875
xmcs32.xadd_level4.xadd2.5          0.00429589
xmcs32.xadd_level4.xadd2.4            0.280029
xmcs32.xadd_level4.xadd2.2            0.998884
xmcs32.xadd_level4.xadd2.3         0.000522314
xmcs32.xadd_level4.xadd2.nodeson        0.997765
xmcs32.xadd_level4.xadd2.9            0.998884
xmcs32.xadd_level4.xadd2.7            0.673649
xmcs32.xadd_level4.xadd2.8            0.998335
xmcs32.xadd_level4.xadd2.6            0.731428
xmcs32.4cout2                         0.998961
xmcs32.4sum2                        0.00505484
xmcs32.xadd_level4.xadd3.nodecon      0.00860005
xmcs32.xadd_level4.xadd3.node4     4.39746e-07
xmcs32.xadd_level4.xadd3.1            0.995875
xmcs32.xadd_level4.xadd3.5          0.00429589
xmcs32.xadd_level4.xadd3.4            0.280029
xmcs32.xadd_level4.xadd3.2            0.998884
xmcs32.xadd_level4.xadd3.3         0.000522314
xmcs32.xadd_level4.xadd3.nodeson        0.997765
xmcs32.xadd_level4.xadd3.9            0.998884
xmcs32.xadd_level4.xadd3.7            0.673649
xmcs32.xadd_level4.xadd3.8            0.998335
xmcs32.xadd_level4.xadd3.6            0.731428
xmcs32.4cout3                         0.998961
xmcs32.4sum3                        0.00505484
xmcs32.xadd_level4.xadd4.nodecon      0.00860005
xmcs32.xadd_level4.xadd4.node4     4.39746e-07
xmcs32.xadd_level4.xadd4.1            0.995875
xmcs32.xadd_level4.xadd4.5          0.00429589
xmcs32.xadd_level4.xadd4.4            0.280029
xmcs32.xadd_level4.xadd4.2            0.998884
xmcs32.xadd_level4.xadd4.3         0.000522314
xmcs32.xadd_level4.xadd4.nodeson        0.997765
xmcs32.xadd_level4.xadd4.9            0.998884
xmcs32.xadd_level4.xadd4.7            0.673649
xmcs32.xadd_level4.xadd4.8            0.998335
xmcs32.xadd_level4.xadd4.6            0.731428
xmcs32.4cout4                         0.998961
xmcs32.4sum4                        0.00505484
xmcs32.xadd_level4.xadd5.nodecon      0.00860005
xmcs32.xadd_level4.xadd5.node4     4.39746e-07
xmcs32.xadd_level4.xadd5.1            0.995875
xmcs32.xadd_level4.xadd5.5          0.00429589
xmcs32.xadd_level4.xadd5.4            0.280029
xmcs32.xadd_level4.xadd5.2            0.998884
xmcs32.xadd_level4.xadd5.3         0.000522314
xmcs32.xadd_level4.xadd5.nodeson        0.997765
xmcs32.xadd_level4.xadd5.9            0.998884
xmcs32.xadd_level4.xadd5.7            0.673649
xmcs32.xadd_level4.xadd5.8            0.998335
xmcs32.xadd_level4.xadd5.6            0.731428
xmcs32.4cout5                         0.998961
xmcs32.4sum5                        0.00505484
xmcs32.xadd_level4.xadd6.nodecon      0.00860005
xmcs32.xadd_level4.xadd6.node4     4.39746e-07
xmcs32.xadd_level4.xadd6.1            0.995875
xmcs32.xadd_level4.xadd6.5          0.00429589
xmcs32.xadd_level4.xadd6.4            0.280029
xmcs32.xadd_level4.xadd6.2            0.998884
xmcs32.xadd_level4.xadd6.3         0.000522314
xmcs32.xadd_level4.xadd6.nodeson        0.997765
xmcs32.xadd_level4.xadd6.9            0.998884
xmcs32.xadd_level4.xadd6.7            0.673649
xmcs32.xadd_level4.xadd6.8            0.998335
xmcs32.xadd_level4.xadd6.6            0.731428
xmcs32.4cout6                         0.998961
xmcs32.4sum6                        0.00505484
xmcs32.xadd_level4.xadd7.nodecon      0.00860005
xmcs32.xadd_level4.xadd7.node4     4.39746e-07
xmcs32.xadd_level4.xadd7.1            0.995875
xmcs32.xadd_level4.xadd7.5          0.00429589
xmcs32.xadd_level4.xadd7.4            0.280029
xmcs32.xadd_level4.xadd7.2            0.998884
xmcs32.xadd_level4.xadd7.3         0.000522314
xmcs32.xadd_level4.xadd7.nodeson        0.997765
xmcs32.xadd_level4.xadd7.9            0.998884
xmcs32.xadd_level4.xadd7.7            0.673649
xmcs32.xadd_level4.xadd7.8            0.998335
xmcs32.xadd_level4.xadd7.6            0.731428
xmcs32.4cout7                         0.998961
xmcs32.4sum7                        0.00505484
xmcs32.xadd_level4.xadd8.nodecon      0.00860005
xmcs32.xadd_level4.xadd8.node4     4.39746e-07
xmcs32.xadd_level4.xadd8.1            0.995875
xmcs32.xadd_level4.xadd8.5          0.00429589
xmcs32.xadd_level4.xadd8.4            0.280029
xmcs32.xadd_level4.xadd8.2            0.998884
xmcs32.xadd_level4.xadd8.3         0.000522314
xmcs32.xadd_level4.xadd8.nodeson        0.997765
xmcs32.xadd_level4.xadd8.9            0.998884
xmcs32.xadd_level4.xadd8.7            0.673649
xmcs32.xadd_level4.xadd8.8            0.998335
xmcs32.xadd_level4.xadd8.6            0.731428
xmcs32.4cout8                         0.998961
xmcs32.4sum8                        0.00505484
xmcs32.xadd_level4.xadd9.nodecon      0.00860005
xmcs32.xadd_level4.xadd9.node4     4.39746e-07
xmcs32.xadd_level4.xadd9.1            0.995875
xmcs32.xadd_level4.xadd9.5          0.00429589
xmcs32.xadd_level4.xadd9.4            0.280029
xmcs32.xadd_level4.xadd9.2            0.998884
xmcs32.xadd_level4.xadd9.3         0.000522314
xmcs32.xadd_level4.xadd9.nodeson        0.997765
xmcs32.xadd_level4.xadd9.9            0.998884
xmcs32.xadd_level4.xadd9.7            0.673649
xmcs32.xadd_level4.xadd9.8            0.998335
xmcs32.xadd_level4.xadd9.6            0.731428
xmcs32.4cout9                         0.998961
xmcs32.4sum9                        0.00505484
xmcs32.xadd_level4.xadd10.nodecon      0.00860005
xmcs32.xadd_level4.xadd10.node4     4.39746e-07
xmcs32.xadd_level4.xadd10.1           0.995875
xmcs32.xadd_level4.xadd10.5         0.00429589
xmcs32.xadd_level4.xadd10.4           0.280029
xmcs32.xadd_level4.xadd10.2           0.998884
xmcs32.xadd_level4.xadd10.3        0.000522314
xmcs32.xadd_level4.xadd10.nodeson        0.997765
xmcs32.xadd_level4.xadd10.9           0.998884
xmcs32.xadd_level4.xadd10.7           0.673649
xmcs32.xadd_level4.xadd10.8           0.998335
xmcs32.xadd_level4.xadd10.6           0.731428
xmcs32.4cout10                        0.998961
xmcs32.4sum10                       0.00505484
xmcs32.xadd_level4.xadd11.nodecon      0.00860005
xmcs32.xadd_level4.xadd11.node4     4.39746e-07
xmcs32.xadd_level4.xadd11.1           0.995875
xmcs32.xadd_level4.xadd11.5         0.00429589
xmcs32.xadd_level4.xadd11.4           0.280029
xmcs32.xadd_level4.xadd11.2           0.998884
xmcs32.xadd_level4.xadd11.3        0.000522314
xmcs32.xadd_level4.xadd11.nodeson        0.997765
xmcs32.xadd_level4.xadd11.9           0.998884
xmcs32.xadd_level4.xadd11.7           0.673649
xmcs32.xadd_level4.xadd11.8           0.998335
xmcs32.xadd_level4.xadd11.6           0.731428
xmcs32.4cout11                        0.998961
xmcs32.4sum11                       0.00505484
xmcs32.xadd_level4.xadd12.nodecon      0.00860005
xmcs32.xadd_level4.xadd12.node4     4.39746e-07
xmcs32.xadd_level4.xadd12.1           0.995875
xmcs32.xadd_level4.xadd12.5         0.00429589
xmcs32.xadd_level4.xadd12.4           0.280029
xmcs32.xadd_level4.xadd12.2           0.998884
xmcs32.xadd_level4.xadd12.3        0.000522314
xmcs32.xadd_level4.xadd12.nodeson        0.997765
xmcs32.xadd_level4.xadd12.9           0.998884
xmcs32.xadd_level4.xadd12.7           0.673649
xmcs32.xadd_level4.xadd12.8           0.998335
xmcs32.xadd_level4.xadd12.6           0.731428
xmcs32.4cout12                        0.998961
xmcs32.4sum12                       0.00505484
xmcs32.xadd_level4.xadd13.nodecon      0.00860005
xmcs32.xadd_level4.xadd13.node4     4.39746e-07
xmcs32.xadd_level4.xadd13.1           0.995875
xmcs32.xadd_level4.xadd13.5         0.00429589
xmcs32.xadd_level4.xadd13.4           0.280029
xmcs32.xadd_level4.xadd13.2           0.998884
xmcs32.xadd_level4.xadd13.3        0.000522314
xmcs32.xadd_level4.xadd13.nodeson        0.997765
xmcs32.xadd_level4.xadd13.9           0.998884
xmcs32.xadd_level4.xadd13.7           0.673649
xmcs32.xadd_level4.xadd13.8           0.998335
xmcs32.xadd_level4.xadd13.6           0.731428
xmcs32.4cout13                        0.998961
xmcs32.4sum13                       0.00505484
xmcs32.xadd_level4.xadd14.nodecon      0.00860005
xmcs32.xadd_level4.xadd14.node4     4.39746e-07
xmcs32.xadd_level4.xadd14.1           0.995875
xmcs32.xadd_level4.xadd14.5         0.00429589
xmcs32.xadd_level4.xadd14.4           0.280029
xmcs32.xadd_level4.xadd14.2           0.998884
xmcs32.xadd_level4.xadd14.3        0.000522314
xmcs32.xadd_level4.xadd14.nodeson        0.997765
xmcs32.xadd_level4.xadd14.9           0.998884
xmcs32.xadd_level4.xadd14.7           0.673649
xmcs32.xadd_level4.xadd14.8           0.998335
xmcs32.xadd_level4.xadd14.6           0.731428
xmcs32.4cout14                        0.998961
xmcs32.4sum14                       0.00505484
xmcs32.xadd_level4.xadd15.nodecon      0.00860005
xmcs32.xadd_level4.xadd15.node4     4.39746e-07
xmcs32.xadd_level4.xadd15.1           0.995875
xmcs32.xadd_level4.xadd15.5         0.00429589
xmcs32.xadd_level4.xadd15.4           0.280029
xmcs32.xadd_level4.xadd15.2           0.998884
xmcs32.xadd_level4.xadd15.3        0.000522314
xmcs32.xadd_level4.xadd15.nodeson        0.997765
xmcs32.xadd_level4.xadd15.9           0.998884
xmcs32.xadd_level4.xadd15.7           0.673649
xmcs32.xadd_level4.xadd15.8           0.998335
xmcs32.xadd_level4.xadd15.6           0.731428
xmcs32.4cout15                        0.998961
xmcs32.4sum15                       0.00505484
xmcs32.xadd_level4.xadd16.nodecon      0.00860005
xmcs32.xadd_level4.xadd16.node4     4.39746e-07
xmcs32.xadd_level4.xadd16.1           0.995875
xmcs32.xadd_level4.xadd16.5         0.00429589
xmcs32.xadd_level4.xadd16.4           0.280029
xmcs32.xadd_level4.xadd16.2           0.998884
xmcs32.xadd_level4.xadd16.3        0.000522314
xmcs32.xadd_level4.xadd16.nodeson        0.997765
xmcs32.xadd_level4.xadd16.9           0.998884
xmcs32.xadd_level4.xadd16.7           0.673649
xmcs32.xadd_level4.xadd16.8           0.998335
xmcs32.xadd_level4.xadd16.6           0.731428
xmcs32.4cout16                        0.998961
xmcs32.4sum16                       0.00505484
xmcs32.xadd_level4.xadd17.nodecon      0.00860005
xmcs32.xadd_level4.xadd17.node4     4.39746e-07
xmcs32.xadd_level4.xadd17.1           0.995875
xmcs32.xadd_level4.xadd17.5         0.00429589
xmcs32.xadd_level4.xadd17.4           0.280029
xmcs32.xadd_level4.xadd17.2           0.998884
xmcs32.xadd_level4.xadd17.3        0.000522314
xmcs32.xadd_level4.xadd17.nodeson        0.997765
xmcs32.xadd_level4.xadd17.9           0.998884
xmcs32.xadd_level4.xadd17.7           0.673649
xmcs32.xadd_level4.xadd17.8           0.998335
xmcs32.xadd_level4.xadd17.6           0.731428
xmcs32.4cout17                        0.998961
xmcs32.4sum17                       0.00505484
xmcs32.xadd_level4.xadd18.nodecon      0.00860005
xmcs32.xadd_level4.xadd18.node4     4.39746e-07
xmcs32.xadd_level4.xadd18.1           0.995875
xmcs32.xadd_level4.xadd18.5         0.00429589
xmcs32.xadd_level4.xadd18.4           0.280029
xmcs32.xadd_level4.xadd18.2           0.998884
xmcs32.xadd_level4.xadd18.3        0.000522314
xmcs32.xadd_level4.xadd18.nodeson        0.997765
xmcs32.xadd_level4.xadd18.9           0.998884
xmcs32.xadd_level4.xadd18.7           0.673649
xmcs32.xadd_level4.xadd18.8           0.998335
xmcs32.xadd_level4.xadd18.6           0.731428
xmcs32.4cout18                        0.998961
xmcs32.4sum18                       0.00505484
xmcs32.xadd_level4.xadd19.nodecon      0.00860005
xmcs32.xadd_level4.xadd19.node4     4.39746e-07
xmcs32.xadd_level4.xadd19.1           0.995875
xmcs32.xadd_level4.xadd19.5         0.00429589
xmcs32.xadd_level4.xadd19.4           0.280029
xmcs32.xadd_level4.xadd19.2           0.998884
xmcs32.xadd_level4.xadd19.3        0.000522314
xmcs32.xadd_level4.xadd19.nodeson        0.997765
xmcs32.xadd_level4.xadd19.9           0.998884
xmcs32.xadd_level4.xadd19.7           0.673649
xmcs32.xadd_level4.xadd19.8           0.998335
xmcs32.xadd_level4.xadd19.6           0.731428
xmcs32.4cout19                        0.998961
xmcs32.4sum19                       0.00505484
xmcs32.xadd_level4.xadd20.nodecon      0.00860005
xmcs32.xadd_level4.xadd20.node4     4.39746e-07
xmcs32.xadd_level4.xadd20.1           0.995875
xmcs32.xadd_level4.xadd20.5         0.00429589
xmcs32.xadd_level4.xadd20.4           0.280029
xmcs32.xadd_level4.xadd20.2           0.998884
xmcs32.xadd_level4.xadd20.3        0.000522314
xmcs32.xadd_level4.xadd20.nodeson        0.997765
xmcs32.xadd_level4.xadd20.9           0.998884
xmcs32.xadd_level4.xadd20.7           0.673649
xmcs32.xadd_level4.xadd20.8           0.998335
xmcs32.xadd_level4.xadd20.6           0.731428
xmcs32.4cout20                        0.998961
xmcs32.4sum20                       0.00505484
xmcs32.xadd_level4.xadd21.nodecon      0.00860005
xmcs32.xadd_level4.xadd21.node4     4.39746e-07
xmcs32.xadd_level4.xadd21.1           0.995875
xmcs32.xadd_level4.xadd21.5         0.00429589
xmcs32.xadd_level4.xadd21.4           0.280029
xmcs32.xadd_level4.xadd21.2           0.998884
xmcs32.xadd_level4.xadd21.3        0.000522314
xmcs32.xadd_level4.xadd21.nodeson        0.997765
xmcs32.xadd_level4.xadd21.9           0.998884
xmcs32.xadd_level4.xadd21.7           0.673649
xmcs32.xadd_level4.xadd21.8           0.998335
xmcs32.xadd_level4.xadd21.6           0.731428
xmcs32.4cout21                        0.998961
xmcs32.4sum21                       0.00505484
xmcs32.xadd_level4.xadd22.nodecon      0.00860005
xmcs32.xadd_level4.xadd22.node4     4.39746e-07
xmcs32.xadd_level4.xadd22.1           0.995875
xmcs32.xadd_level4.xadd22.5         0.00429589
xmcs32.xadd_level4.xadd22.4           0.280029
xmcs32.xadd_level4.xadd22.2           0.998884
xmcs32.xadd_level4.xadd22.3        0.000522314
xmcs32.xadd_level4.xadd22.nodeson        0.997765
xmcs32.xadd_level4.xadd22.9           0.998884
xmcs32.xadd_level4.xadd22.7           0.673649
xmcs32.xadd_level4.xadd22.8           0.998335
xmcs32.xadd_level4.xadd22.6           0.731428
xmcs32.4cout22                        0.998961
xmcs32.4sum22                       0.00505484
xmcs32.xadd_level4.xadd23.nodecon      0.00860005
xmcs32.xadd_level4.xadd23.node4     4.39746e-07
xmcs32.xadd_level4.xadd23.1           0.995875
xmcs32.xadd_level4.xadd23.5         0.00429589
xmcs32.xadd_level4.xadd23.4           0.280029
xmcs32.xadd_level4.xadd23.2           0.998884
xmcs32.xadd_level4.xadd23.3        0.000522314
xmcs32.xadd_level4.xadd23.nodeson        0.997765
xmcs32.xadd_level4.xadd23.9           0.998884
xmcs32.xadd_level4.xadd23.7           0.673649
xmcs32.xadd_level4.xadd23.8           0.998335
xmcs32.xadd_level4.xadd23.6           0.731428
xmcs32.4cout23                        0.998961
xmcs32.4sum23                       0.00505484
xmcs32.xadd_level4.xadd24.nodecon      0.00860005
xmcs32.xadd_level4.xadd24.node4     4.39746e-07
xmcs32.xadd_level4.xadd24.1           0.995875
xmcs32.xadd_level4.xadd24.5         0.00429589
xmcs32.xadd_level4.xadd24.4           0.280029
xmcs32.xadd_level4.xadd24.2           0.998884
xmcs32.xadd_level4.xadd24.3        0.000522314
xmcs32.xadd_level4.xadd24.nodeson        0.997765
xmcs32.xadd_level4.xadd24.9           0.998884
xmcs32.xadd_level4.xadd24.7           0.673649
xmcs32.xadd_level4.xadd24.8           0.998335
xmcs32.xadd_level4.xadd24.6           0.731428
xmcs32.4cout24                        0.998961
xmcs32.4sum24                       0.00505484
xmcs32.xadd_level4.xadd25.nodecon      0.00860005
xmcs32.xadd_level4.xadd25.node4     4.39746e-07
xmcs32.xadd_level4.xadd25.1           0.995875
xmcs32.xadd_level4.xadd25.5         0.00429589
xmcs32.xadd_level4.xadd25.4           0.280029
xmcs32.xadd_level4.xadd25.2           0.998884
xmcs32.xadd_level4.xadd25.3        0.000522314
xmcs32.xadd_level4.xadd25.nodeson        0.997765
xmcs32.xadd_level4.xadd25.9           0.998884
xmcs32.xadd_level4.xadd25.7           0.673649
xmcs32.xadd_level4.xadd25.8           0.998335
xmcs32.xadd_level4.xadd25.6           0.731428
xmcs32.4cout25                        0.998961
xmcs32.4sum25                       0.00505484
xmcs32.xadd_level4.xadd26.nodecon      0.00860005
xmcs32.xadd_level4.xadd26.node4     4.39746e-07
xmcs32.xadd_level4.xadd26.1           0.995875
xmcs32.xadd_level4.xadd26.5         0.00429589
xmcs32.xadd_level4.xadd26.4           0.280029
xmcs32.xadd_level4.xadd26.2           0.998884
xmcs32.xadd_level4.xadd26.3        0.000522314
xmcs32.xadd_level4.xadd26.nodeson        0.997765
xmcs32.xadd_level4.xadd26.9           0.998884
xmcs32.xadd_level4.xadd26.7           0.673649
xmcs32.xadd_level4.xadd26.8           0.998335
xmcs32.xadd_level4.xadd26.6           0.731428
xmcs32.4cout26                        0.998961
xmcs32.4sum26                       0.00505484
xmcs32.xadd_level4.xadd27.nodecon      0.00860005
xmcs32.xadd_level4.xadd27.node4     4.39746e-07
xmcs32.xadd_level4.xadd27.1           0.995875
xmcs32.xadd_level4.xadd27.5         0.00429589
xmcs32.xadd_level4.xadd27.4           0.280029
xmcs32.xadd_level4.xadd27.2           0.998884
xmcs32.xadd_level4.xadd27.3        0.000522314
xmcs32.xadd_level4.xadd27.nodeson        0.997765
xmcs32.xadd_level4.xadd27.9           0.998884
xmcs32.xadd_level4.xadd27.7           0.673649
xmcs32.xadd_level4.xadd27.8           0.998335
xmcs32.xadd_level4.xadd27.6           0.731428
xmcs32.4cout27                        0.998961
xmcs32.4sum27                       0.00505484
xmcs32.xadd_level4.xadd28.nodecon      0.00860005
xmcs32.xadd_level4.xadd28.node4     4.39746e-07
xmcs32.xadd_level4.xadd28.1           0.995875
xmcs32.xadd_level4.xadd28.5         0.00429589
xmcs32.xadd_level4.xadd28.4           0.280029
xmcs32.xadd_level4.xadd28.2           0.998884
xmcs32.xadd_level4.xadd28.3        0.000522314
xmcs32.xadd_level4.xadd28.nodeson        0.997765
xmcs32.xadd_level4.xadd28.9           0.998884
xmcs32.xadd_level4.xadd28.7           0.673649
xmcs32.xadd_level4.xadd28.8           0.998335
xmcs32.xadd_level4.xadd28.6           0.731428
xmcs32.4cout28                        0.998961
xmcs32.4sum28                       0.00505484
xmcs32.xadd_level4.xadd29.nodecon      0.00860005
xmcs32.xadd_level4.xadd29.node4     4.39746e-07
xmcs32.xadd_level4.xadd29.1           0.995875
xmcs32.xadd_level4.xadd29.5         0.00429589
xmcs32.xadd_level4.xadd29.4           0.280029
xmcs32.xadd_level4.xadd29.2           0.998884
xmcs32.xadd_level4.xadd29.3        0.000522314
xmcs32.xadd_level4.xadd29.nodeson        0.997765
xmcs32.xadd_level4.xadd29.9           0.998884
xmcs32.xadd_level4.xadd29.7           0.673649
xmcs32.xadd_level4.xadd29.8           0.998335
xmcs32.xadd_level4.xadd29.6           0.731428
xmcs32.4cout29                         0.99896
xmcs32.4sum29                       0.00505484
xmcs32.xadd_level4.xadd30.nodecon     4.71937e-06
xmcs32.xadd_level4.xadd30.node4     2.68983e-06
xmcs32.xadd_level4.xadd30.1           0.821447
xmcs32.xadd_level4.xadd30.5        1.90378e-06
xmcs32.xadd_level4.xadd30.4           0.684029
xmcs32.xadd_level4.xadd30.2           0.302843
xmcs32.xadd_level4.xadd30.3        3.35353e-07
xmcs32.xadd_level4.xadd30.nodeson      0.00126621
xmcs32.xadd_level4.xadd30.9            0.72888
xmcs32.xadd_level4.xadd30.7         0.00042274
xmcs32.xadd_level4.xadd30.8            0.66476
xmcs32.xadd_level4.xadd30.6        0.000844838
xmcs32.4cout30                        0.999148
xmcs32.4sum30                         0.999122
xmcs32.xand_level5.xand0.6          0.00380259
xmcs32.xand_level5.xand0.7          0.00761216
xy3                                          1
xmcs32.5out0                          0.998503
xmcs32.xand_level5.xand1.6          0.00380259
xmcs32.xand_level5.xand1.7          0.00761216
xmcs32.5out1                          0.998503
xmcs32.xand_level5.xand2.6          0.00380259
xmcs32.xand_level5.xand2.7          0.00761216
xmcs32.5out2                          0.998503
xmcs32.xand_level5.xand3.6          0.00380259
xmcs32.xand_level5.xand3.7          0.00761216
xmcs32.5out3                          0.998503
xmcs32.xand_level5.xand4.6          0.00380259
xmcs32.xand_level5.xand4.7          0.00761216
xmcs32.5out4                          0.998503
xmcs32.xand_level5.xand5.6          0.00380259
xmcs32.xand_level5.xand5.7          0.00761216
xmcs32.5out5                          0.998503
xmcs32.xand_level5.xand6.6          0.00380259
xmcs32.xand_level5.xand6.7          0.00761216
xmcs32.5out6                          0.998503
xmcs32.xand_level5.xand7.6          0.00380259
xmcs32.xand_level5.xand7.7          0.00761216
xmcs32.5out7                          0.998503
xmcs32.xand_level5.xand8.6          0.00380259
xmcs32.xand_level5.xand8.7          0.00761216
xmcs32.5out8                          0.998503
xmcs32.xand_level5.xand9.6          0.00380259
xmcs32.xand_level5.xand9.7          0.00761216
xmcs32.5out9                          0.998503
xmcs32.xand_level5.xand10.6         0.00380259
xmcs32.xand_level5.xand10.7         0.00761216
xmcs32.5out10                         0.998503
xmcs32.xand_level5.xand11.6         0.00380259
xmcs32.xand_level5.xand11.7         0.00761216
xmcs32.5out11                         0.998503
xmcs32.xand_level5.xand12.6         0.00380259
xmcs32.xand_level5.xand12.7         0.00761216
xmcs32.5out12                         0.998503
xmcs32.xand_level5.xand13.6         0.00380259
xmcs32.xand_level5.xand13.7         0.00761216
xmcs32.5out13                         0.998503
xmcs32.xand_level5.xand14.6         0.00380259
xmcs32.xand_level5.xand14.7         0.00761216
xmcs32.5out14                         0.998503
xmcs32.xand_level5.xand15.6         0.00380259
xmcs32.xand_level5.xand15.7         0.00761216
xmcs32.5out15                         0.998503
xmcs32.xand_level5.xand16.6         0.00380259
xmcs32.xand_level5.xand16.7         0.00761216
xmcs32.5out16                         0.998503
xmcs32.xand_level5.xand17.6         0.00380259
xmcs32.xand_level5.xand17.7         0.00761216
xmcs32.5out17                         0.998503
xmcs32.xand_level5.xand18.6         0.00380259
xmcs32.xand_level5.xand18.7         0.00761216
xmcs32.5out18                         0.998503
xmcs32.xand_level5.xand19.6         0.00380259
xmcs32.xand_level5.xand19.7         0.00761216
xmcs32.5out19                         0.998503
xmcs32.xand_level5.xand20.6         0.00380259
xmcs32.xand_level5.xand20.7         0.00761216
xmcs32.5out20                         0.998503
xmcs32.xand_level5.xand21.6         0.00380259
xmcs32.xand_level5.xand21.7         0.00761216
xmcs32.5out21                         0.998503
xmcs32.xand_level5.xand22.6         0.00380259
xmcs32.xand_level5.xand22.7         0.00761216
xmcs32.5out22                         0.998503
xmcs32.xand_level5.xand23.6         0.00380259
xmcs32.xand_level5.xand23.7         0.00761216
xmcs32.5out23                         0.998503
xmcs32.xand_level5.xand24.6         0.00380259
xmcs32.xand_level5.xand24.7         0.00761216
xmcs32.5out24                         0.998503
xmcs32.xand_level5.xand25.6         0.00380259
xmcs32.xand_level5.xand25.7         0.00761216
xmcs32.5out25                         0.998503
xmcs32.xand_level5.xand26.6         0.00380259
xmcs32.xand_level5.xand26.7         0.00761216
xmcs32.5out26                         0.998503
xmcs32.xand_level5.xand27.6         0.00380259
xmcs32.xand_level5.xand27.7         0.00761216
xmcs32.5out27                         0.998503
xmcs32.xand_level5.xand28.6         0.00380259
xmcs32.xand_level5.xand28.7         0.00761216
xmcs32.5out28                         0.998503
xmcs32.xand_level5.xand29.6         0.00380259
xmcs32.xand_level5.xand29.7         0.00761216
xmcs32.5out29                           0.9985
xmcs32.xand_level5.xand30.6         0.00380259
xmcs32.xand_level5.xand30.7         0.00761216
xmcs32.5out30                           0.9985
xmcs32.xand_level5.xand31.6         0.00380259
xmcs32.xand_level5.xand31.7         0.00761216
xmcs32.5out31                           0.9985
xmcs32.xadd_level6.xadd0.nodecon      0.00862496
xmcs32.xadd_level6.xadd0.node4     4.39423e-07
xmcs32.xadd_level6.xadd0.1            0.995863
xmcs32.xadd_level6.xadd0.5          0.00430819
xmcs32.xadd_level6.xadd0.4            0.279907
xmcs32.xadd_level6.xadd0.2            0.998885
xmcs32.xadd_level6.xadd0.3         0.000522619
xmcs32.xadd_level6.xadd0.nodeson        0.997765
xmcs32.xadd_level6.xadd0.9            0.998885
xmcs32.xadd_level6.xadd0.7            0.673759
xmcs32.xadd_level6.xadd0.8            0.998334
xmcs32.xadd_level6.xadd0.6            0.731431
xmcs32.6cout0                         0.998961
xout3                               0.00505238
xmcs32.xadd_level6.xadd1.nodecon      0.00862496
xmcs32.xadd_level6.xadd1.node4     4.39423e-07
xmcs32.xadd_level6.xadd1.1            0.995863
xmcs32.xadd_level6.xadd1.5          0.00430819
xmcs32.xadd_level6.xadd1.4            0.279907
xmcs32.xadd_level6.xadd1.2            0.998885
xmcs32.xadd_level6.xadd1.3         0.000522619
xmcs32.xadd_level6.xadd1.nodeson        0.997765
xmcs32.xadd_level6.xadd1.9            0.998885
xmcs32.xadd_level6.xadd1.7            0.673759
xmcs32.xadd_level6.xadd1.8            0.998334
xmcs32.xadd_level6.xadd1.6            0.731431
xmcs32.6cout1                         0.998961
xmcs32.6sum1                        0.00505484
xmcs32.xadd_level6.xadd2.nodecon      0.00862496
xmcs32.xadd_level6.xadd2.node4     4.39423e-07
xmcs32.xadd_level6.xadd2.1            0.995863
xmcs32.xadd_level6.xadd2.5          0.00430819
xmcs32.xadd_level6.xadd2.4            0.279907
xmcs32.xadd_level6.xadd2.2            0.998885
xmcs32.xadd_level6.xadd2.3         0.000522619
xmcs32.xadd_level6.xadd2.nodeson        0.997765
xmcs32.xadd_level6.xadd2.9            0.998885
xmcs32.xadd_level6.xadd2.7            0.673759
xmcs32.xadd_level6.xadd2.8            0.998334
xmcs32.xadd_level6.xadd2.6            0.731431
xmcs32.6cout2                         0.998961
xmcs32.6sum2                        0.00505484
xmcs32.xadd_level6.xadd3.nodecon      0.00862496
xmcs32.xadd_level6.xadd3.node4     4.39423e-07
xmcs32.xadd_level6.xadd3.1            0.995863
xmcs32.xadd_level6.xadd3.5          0.00430819
xmcs32.xadd_level6.xadd3.4            0.279907
xmcs32.xadd_level6.xadd3.2            0.998885
xmcs32.xadd_level6.xadd3.3         0.000522619
xmcs32.xadd_level6.xadd3.nodeson        0.997765
xmcs32.xadd_level6.xadd3.9            0.998885
xmcs32.xadd_level6.xadd3.7            0.673759
xmcs32.xadd_level6.xadd3.8            0.998334
xmcs32.xadd_level6.xadd3.6            0.731431
xmcs32.6cout3                         0.998961
xmcs32.6sum3                        0.00505484
xmcs32.xadd_level6.xadd4.nodecon      0.00862496
xmcs32.xadd_level6.xadd4.node4     4.39423e-07
xmcs32.xadd_level6.xadd4.1            0.995863
xmcs32.xadd_level6.xadd4.5          0.00430819
xmcs32.xadd_level6.xadd4.4            0.279907
xmcs32.xadd_level6.xadd4.2            0.998885
xmcs32.xadd_level6.xadd4.3         0.000522619
xmcs32.xadd_level6.xadd4.nodeson        0.997765
xmcs32.xadd_level6.xadd4.9            0.998885
xmcs32.xadd_level6.xadd4.7            0.673759
xmcs32.xadd_level6.xadd4.8            0.998334
xmcs32.xadd_level6.xadd4.6            0.731431
xmcs32.6cout4                         0.998961
xmcs32.6sum4                        0.00505484
xmcs32.xadd_level6.xadd5.nodecon      0.00862496
xmcs32.xadd_level6.xadd5.node4     4.39423e-07
xmcs32.xadd_level6.xadd5.1            0.995863
xmcs32.xadd_level6.xadd5.5          0.00430819
xmcs32.xadd_level6.xadd5.4            0.279907
xmcs32.xadd_level6.xadd5.2            0.998885
xmcs32.xadd_level6.xadd5.3         0.000522619
xmcs32.xadd_level6.xadd5.nodeson        0.997765
xmcs32.xadd_level6.xadd5.9            0.998885
xmcs32.xadd_level6.xadd5.7            0.673759
xmcs32.xadd_level6.xadd5.8            0.998334
xmcs32.xadd_level6.xadd5.6            0.731431
xmcs32.6cout5                         0.998961
xmcs32.6sum5                        0.00505484
xmcs32.xadd_level6.xadd6.nodecon      0.00862496
xmcs32.xadd_level6.xadd6.node4     4.39423e-07
xmcs32.xadd_level6.xadd6.1            0.995863
xmcs32.xadd_level6.xadd6.5          0.00430819
xmcs32.xadd_level6.xadd6.4            0.279907
xmcs32.xadd_level6.xadd6.2            0.998885
xmcs32.xadd_level6.xadd6.3         0.000522619
xmcs32.xadd_level6.xadd6.nodeson        0.997765
xmcs32.xadd_level6.xadd6.9            0.998885
xmcs32.xadd_level6.xadd6.7            0.673759
xmcs32.xadd_level6.xadd6.8            0.998334
xmcs32.xadd_level6.xadd6.6            0.731431
xmcs32.6cout6                         0.998961
xmcs32.6sum6                        0.00505484
xmcs32.xadd_level6.xadd7.nodecon      0.00862496
xmcs32.xadd_level6.xadd7.node4     4.39423e-07
xmcs32.xadd_level6.xadd7.1            0.995863
xmcs32.xadd_level6.xadd7.5          0.00430819
xmcs32.xadd_level6.xadd7.4            0.279907
xmcs32.xadd_level6.xadd7.2            0.998885
xmcs32.xadd_level6.xadd7.3         0.000522619
xmcs32.xadd_level6.xadd7.nodeson        0.997765
xmcs32.xadd_level6.xadd7.9            0.998885
xmcs32.xadd_level6.xadd7.7            0.673759
xmcs32.xadd_level6.xadd7.8            0.998334
xmcs32.xadd_level6.xadd7.6            0.731431
xmcs32.6cout7                         0.998961
xmcs32.6sum7                        0.00505484
xmcs32.xadd_level6.xadd8.nodecon      0.00862496
xmcs32.xadd_level6.xadd8.node4     4.39423e-07
xmcs32.xadd_level6.xadd8.1            0.995863
xmcs32.xadd_level6.xadd8.5          0.00430819
xmcs32.xadd_level6.xadd8.4            0.279907
xmcs32.xadd_level6.xadd8.2            0.998885
xmcs32.xadd_level6.xadd8.3         0.000522619
xmcs32.xadd_level6.xadd8.nodeson        0.997765
xmcs32.xadd_level6.xadd8.9            0.998885
xmcs32.xadd_level6.xadd8.7            0.673759
xmcs32.xadd_level6.xadd8.8            0.998334
xmcs32.xadd_level6.xadd8.6            0.731431
xmcs32.6cout8                         0.998961
xmcs32.6sum8                        0.00505484
xmcs32.xadd_level6.xadd9.nodecon      0.00862496
xmcs32.xadd_level6.xadd9.node4     4.39423e-07
xmcs32.xadd_level6.xadd9.1            0.995863
xmcs32.xadd_level6.xadd9.5          0.00430819
xmcs32.xadd_level6.xadd9.4            0.279907
xmcs32.xadd_level6.xadd9.2            0.998885
xmcs32.xadd_level6.xadd9.3         0.000522619
xmcs32.xadd_level6.xadd9.nodeson        0.997765
xmcs32.xadd_level6.xadd9.9            0.998885
xmcs32.xadd_level6.xadd9.7            0.673759
xmcs32.xadd_level6.xadd9.8            0.998334
xmcs32.xadd_level6.xadd9.6            0.731431
xmcs32.6cout9                         0.998961
xmcs32.6sum9                        0.00505484
xmcs32.xadd_level6.xadd10.nodecon      0.00862496
xmcs32.xadd_level6.xadd10.node4     4.39423e-07
xmcs32.xadd_level6.xadd10.1           0.995863
xmcs32.xadd_level6.xadd10.5         0.00430819
xmcs32.xadd_level6.xadd10.4           0.279907
xmcs32.xadd_level6.xadd10.2           0.998885
xmcs32.xadd_level6.xadd10.3        0.000522619
xmcs32.xadd_level6.xadd10.nodeson        0.997765
xmcs32.xadd_level6.xadd10.9           0.998885
xmcs32.xadd_level6.xadd10.7           0.673759
xmcs32.xadd_level6.xadd10.8           0.998334
xmcs32.xadd_level6.xadd10.6           0.731431
xmcs32.6cout10                        0.998961
xmcs32.6sum10                       0.00505484
xmcs32.xadd_level6.xadd11.nodecon      0.00862496
xmcs32.xadd_level6.xadd11.node4     4.39423e-07
xmcs32.xadd_level6.xadd11.1           0.995863
xmcs32.xadd_level6.xadd11.5         0.00430819
xmcs32.xadd_level6.xadd11.4           0.279907
xmcs32.xadd_level6.xadd11.2           0.998885
xmcs32.xadd_level6.xadd11.3        0.000522619
xmcs32.xadd_level6.xadd11.nodeson        0.997765
xmcs32.xadd_level6.xadd11.9           0.998885
xmcs32.xadd_level6.xadd11.7           0.673759
xmcs32.xadd_level6.xadd11.8           0.998334
xmcs32.xadd_level6.xadd11.6           0.731431
xmcs32.6cout11                        0.998961
xmcs32.6sum11                       0.00505484
xmcs32.xadd_level6.xadd12.nodecon      0.00862496
xmcs32.xadd_level6.xadd12.node4     4.39423e-07
xmcs32.xadd_level6.xadd12.1           0.995863
xmcs32.xadd_level6.xadd12.5         0.00430819
xmcs32.xadd_level6.xadd12.4           0.279907
xmcs32.xadd_level6.xadd12.2           0.998885
xmcs32.xadd_level6.xadd12.3        0.000522619
xmcs32.xadd_level6.xadd12.nodeson        0.997765
xmcs32.xadd_level6.xadd12.9           0.998885
xmcs32.xadd_level6.xadd12.7           0.673759
xmcs32.xadd_level6.xadd12.8           0.998334
xmcs32.xadd_level6.xadd12.6           0.731431
xmcs32.6cout12                        0.998961
xmcs32.6sum12                       0.00505484
xmcs32.xadd_level6.xadd13.nodecon      0.00862496
xmcs32.xadd_level6.xadd13.node4     4.39423e-07
xmcs32.xadd_level6.xadd13.1           0.995863
xmcs32.xadd_level6.xadd13.5         0.00430819
xmcs32.xadd_level6.xadd13.4           0.279907
xmcs32.xadd_level6.xadd13.2           0.998885
xmcs32.xadd_level6.xadd13.3        0.000522619
xmcs32.xadd_level6.xadd13.nodeson        0.997765
xmcs32.xadd_level6.xadd13.9           0.998885
xmcs32.xadd_level6.xadd13.7           0.673759
xmcs32.xadd_level6.xadd13.8           0.998334
xmcs32.xadd_level6.xadd13.6           0.731431
xmcs32.6cout13                        0.998961
xmcs32.6sum13                       0.00505484
xmcs32.xadd_level6.xadd14.nodecon      0.00862496
xmcs32.xadd_level6.xadd14.node4     4.39423e-07
xmcs32.xadd_level6.xadd14.1           0.995863
xmcs32.xadd_level6.xadd14.5         0.00430819
xmcs32.xadd_level6.xadd14.4           0.279907
xmcs32.xadd_level6.xadd14.2           0.998885
xmcs32.xadd_level6.xadd14.3        0.000522619
xmcs32.xadd_level6.xadd14.nodeson        0.997765
xmcs32.xadd_level6.xadd14.9           0.998885
xmcs32.xadd_level6.xadd14.7           0.673759
xmcs32.xadd_level6.xadd14.8           0.998334
xmcs32.xadd_level6.xadd14.6           0.731431
xmcs32.6cout14                        0.998961
xmcs32.6sum14                       0.00505484
xmcs32.xadd_level6.xadd15.nodecon      0.00862496
xmcs32.xadd_level6.xadd15.node4     4.39423e-07
xmcs32.xadd_level6.xadd15.1           0.995863
xmcs32.xadd_level6.xadd15.5         0.00430819
xmcs32.xadd_level6.xadd15.4           0.279907
xmcs32.xadd_level6.xadd15.2           0.998885
xmcs32.xadd_level6.xadd15.3        0.000522619
xmcs32.xadd_level6.xadd15.nodeson        0.997765
xmcs32.xadd_level6.xadd15.9           0.998885
xmcs32.xadd_level6.xadd15.7           0.673759
xmcs32.xadd_level6.xadd15.8           0.998334
xmcs32.xadd_level6.xadd15.6           0.731431
xmcs32.6cout15                        0.998961
xmcs32.6sum15                       0.00505484
xmcs32.xadd_level6.xadd16.nodecon      0.00862496
xmcs32.xadd_level6.xadd16.node4     4.39423e-07
xmcs32.xadd_level6.xadd16.1           0.995863
xmcs32.xadd_level6.xadd16.5         0.00430819
xmcs32.xadd_level6.xadd16.4           0.279907
xmcs32.xadd_level6.xadd16.2           0.998885
xmcs32.xadd_level6.xadd16.3        0.000522619
xmcs32.xadd_level6.xadd16.nodeson        0.997765
xmcs32.xadd_level6.xadd16.9           0.998885
xmcs32.xadd_level6.xadd16.7           0.673759
xmcs32.xadd_level6.xadd16.8           0.998334
xmcs32.xadd_level6.xadd16.6           0.731431
xmcs32.6cout16                        0.998961
xmcs32.6sum16                       0.00505484
xmcs32.xadd_level6.xadd17.nodecon      0.00862496
xmcs32.xadd_level6.xadd17.node4     4.39423e-07
xmcs32.xadd_level6.xadd17.1           0.995863
xmcs32.xadd_level6.xadd17.5         0.00430819
xmcs32.xadd_level6.xadd17.4           0.279907
xmcs32.xadd_level6.xadd17.2           0.998885
xmcs32.xadd_level6.xadd17.3        0.000522619
xmcs32.xadd_level6.xadd17.nodeson        0.997765
xmcs32.xadd_level6.xadd17.9           0.998885
xmcs32.xadd_level6.xadd17.7           0.673759
xmcs32.xadd_level6.xadd17.8           0.998334
xmcs32.xadd_level6.xadd17.6           0.731431
xmcs32.6cout17                        0.998961
xmcs32.6sum17                       0.00505484
xmcs32.xadd_level6.xadd18.nodecon      0.00862496
xmcs32.xadd_level6.xadd18.node4     4.39423e-07
xmcs32.xadd_level6.xadd18.1           0.995863
xmcs32.xadd_level6.xadd18.5         0.00430819
xmcs32.xadd_level6.xadd18.4           0.279907
xmcs32.xadd_level6.xadd18.2           0.998885
xmcs32.xadd_level6.xadd18.3        0.000522619
xmcs32.xadd_level6.xadd18.nodeson        0.997765
xmcs32.xadd_level6.xadd18.9           0.998885
xmcs32.xadd_level6.xadd18.7           0.673759
xmcs32.xadd_level6.xadd18.8           0.998334
xmcs32.xadd_level6.xadd18.6           0.731431
xmcs32.6cout18                        0.998961
xmcs32.6sum18                       0.00505484
xmcs32.xadd_level6.xadd19.nodecon      0.00862496
xmcs32.xadd_level6.xadd19.node4     4.39423e-07
xmcs32.xadd_level6.xadd19.1           0.995863
xmcs32.xadd_level6.xadd19.5         0.00430819
xmcs32.xadd_level6.xadd19.4           0.279907
xmcs32.xadd_level6.xadd19.2           0.998885
xmcs32.xadd_level6.xadd19.3        0.000522619
xmcs32.xadd_level6.xadd19.nodeson        0.997765
xmcs32.xadd_level6.xadd19.9           0.998885
xmcs32.xadd_level6.xadd19.7           0.673759
xmcs32.xadd_level6.xadd19.8           0.998334
xmcs32.xadd_level6.xadd19.6           0.731431
xmcs32.6cout19                        0.998961
xmcs32.6sum19                       0.00505484
xmcs32.xadd_level6.xadd20.nodecon      0.00862496
xmcs32.xadd_level6.xadd20.node4     4.39423e-07
xmcs32.xadd_level6.xadd20.1           0.995863
xmcs32.xadd_level6.xadd20.5         0.00430819
xmcs32.xadd_level6.xadd20.4           0.279907
xmcs32.xadd_level6.xadd20.2           0.998885
xmcs32.xadd_level6.xadd20.3        0.000522619
xmcs32.xadd_level6.xadd20.nodeson        0.997765
xmcs32.xadd_level6.xadd20.9           0.998885
xmcs32.xadd_level6.xadd20.7           0.673759
xmcs32.xadd_level6.xadd20.8           0.998334
xmcs32.xadd_level6.xadd20.6           0.731431
xmcs32.6cout20                        0.998961
xmcs32.6sum20                       0.00505484
xmcs32.xadd_level6.xadd21.nodecon      0.00862496
xmcs32.xadd_level6.xadd21.node4     4.39423e-07
xmcs32.xadd_level6.xadd21.1           0.995863
xmcs32.xadd_level6.xadd21.5         0.00430819
xmcs32.xadd_level6.xadd21.4           0.279907
xmcs32.xadd_level6.xadd21.2           0.998885
xmcs32.xadd_level6.xadd21.3        0.000522619
xmcs32.xadd_level6.xadd21.nodeson        0.997765
xmcs32.xadd_level6.xadd21.9           0.998885
xmcs32.xadd_level6.xadd21.7           0.673759
xmcs32.xadd_level6.xadd21.8           0.998334
xmcs32.xadd_level6.xadd21.6           0.731431
xmcs32.6cout21                        0.998961
xmcs32.6sum21                       0.00505484
xmcs32.xadd_level6.xadd22.nodecon      0.00862496
xmcs32.xadd_level6.xadd22.node4     4.39423e-07
xmcs32.xadd_level6.xadd22.1           0.995863
xmcs32.xadd_level6.xadd22.5         0.00430819
xmcs32.xadd_level6.xadd22.4           0.279907
xmcs32.xadd_level6.xadd22.2           0.998885
xmcs32.xadd_level6.xadd22.3        0.000522619
xmcs32.xadd_level6.xadd22.nodeson        0.997765
xmcs32.xadd_level6.xadd22.9           0.998885
xmcs32.xadd_level6.xadd22.7           0.673759
xmcs32.xadd_level6.xadd22.8           0.998334
xmcs32.xadd_level6.xadd22.6           0.731431
xmcs32.6cout22                        0.998961
xmcs32.6sum22                       0.00505484
xmcs32.xadd_level6.xadd23.nodecon      0.00862496
xmcs32.xadd_level6.xadd23.node4     4.39423e-07
xmcs32.xadd_level6.xadd23.1           0.995863
xmcs32.xadd_level6.xadd23.5         0.00430819
xmcs32.xadd_level6.xadd23.4           0.279907
xmcs32.xadd_level6.xadd23.2           0.998885
xmcs32.xadd_level6.xadd23.3        0.000522619
xmcs32.xadd_level6.xadd23.nodeson        0.997765
xmcs32.xadd_level6.xadd23.9           0.998885
xmcs32.xadd_level6.xadd23.7           0.673759
xmcs32.xadd_level6.xadd23.8           0.998334
xmcs32.xadd_level6.xadd23.6           0.731431
xmcs32.6cout23                        0.998961
xmcs32.6sum23                       0.00505484
xmcs32.xadd_level6.xadd24.nodecon      0.00862496
xmcs32.xadd_level6.xadd24.node4     4.39423e-07
xmcs32.xadd_level6.xadd24.1           0.995863
xmcs32.xadd_level6.xadd24.5         0.00430819
xmcs32.xadd_level6.xadd24.4           0.279907
xmcs32.xadd_level6.xadd24.2           0.998885
xmcs32.xadd_level6.xadd24.3        0.000522619
xmcs32.xadd_level6.xadd24.nodeson        0.997765
xmcs32.xadd_level6.xadd24.9           0.998885
xmcs32.xadd_level6.xadd24.7           0.673759
xmcs32.xadd_level6.xadd24.8           0.998334
xmcs32.xadd_level6.xadd24.6           0.731431
xmcs32.6cout24                        0.998961
xmcs32.6sum24                       0.00505484
xmcs32.xadd_level6.xadd25.nodecon      0.00862496
xmcs32.xadd_level6.xadd25.node4     4.39423e-07
xmcs32.xadd_level6.xadd25.1           0.995863
xmcs32.xadd_level6.xadd25.5         0.00430819
xmcs32.xadd_level6.xadd25.4           0.279907
xmcs32.xadd_level6.xadd25.2           0.998885
xmcs32.xadd_level6.xadd25.3        0.000522619
xmcs32.xadd_level6.xadd25.nodeson        0.997765
xmcs32.xadd_level6.xadd25.9           0.998885
[...]
e value :  1.50912e-09 Reference value :  1.51312e-09 Reference value :  1.51712e-09 Reference value :  1.52112e-09 Reference value :  1.52512e-09 Reference value :  1.52912e-09 Reference value :  1.53312e-09 Reference value :  1.53712e-09 Reference value :  1.54112e-09 Reference value :  1.54512e-09 Reference value :  1.54912e-09 Reference value :  1.55312e-09 Reference value :  1.55712e-09 Reference value :  1.56112e-09 Reference value :  1.56512e-09 Reference value :  1.56912e-09 Reference value :  1.57312e-09 Reference value :  1.57712e-09 Reference value :  1.58112e-09 Reference value :  1.58512e-09 Reference value :  1.58912e-09 Reference value :  1.59312e-09 Reference value :  1.59712e-09 Reference value :  1.60112e-09 Reference value :  1.60512e-09 Reference value :  1.60912e-09 Reference value :  1.61312e-09 Reference value :  1.61712e-09 Reference value :  1.62112e-09 Reference value :  1.62512e-09 Reference value :  1.62912e-09 Reference value :  1.63312e-09 Reference value :  1.63712e-09 Reference value :  1.64112e-09 Reference value :  1.64512e-09 Reference value :  1.64912e-09 Reference value :  1.65312e-09 Reference value :  1.65712e-09 Reference value :  1.66112e-09 Reference value :  1.66512e-09 Reference value :  1.66912e-09 Reference value :  1.67312e-09 Reference value :  1.67712e-09 Reference value :  1.68112e-09 Reference value :  1.68512e-09 Reference value :  1.68912e-09 Reference value :  1.69312e-09 Reference value :  1.69712e-09 Reference value :  1.70112e-09 Reference value :  1.70512e-09 Reference value :  1.70912e-09 Reference value :  1.71312e-09 Reference value :  1.71712e-09 Reference value :  1.72112e-09 Reference value :  1.72512e-09 Reference value :  1.72912e-09 Reference value :  1.73312e-09 Reference value :  1.73712e-09 Reference value :  1.74112e-09 Reference value :  1.74512e-09 Reference value :  1.74912e-09 Reference value :  1.75312e-09 Reference value :  1.75712e-09 Reference value :  1.76112e-09 Reference value :  1.76512e-09 Reference value :  1.76912e-09 Reference value :  1.77312e-09 Reference value :  1.77712e-09 Reference value :  1.78112e-09 Reference value :  1.78512e-09 Reference value :  1.78912e-09 Reference value :  1.79312e-09 Reference value :  1.79712e-09 Reference value :  1.80112e-09 Reference value :  1.80512e-09 Reference value :  1.80912e-09 Reference value :  1.81312e-09 Reference value :  1.81712e-09 Reference value :  1.82112e-09 Reference value :  1.82512e-09 Reference value :  1.82912e-09 Reference value :  1.83312e-09 Reference value :  1.83712e-09 Reference value :  1.84112e-09 Reference value :  1.84512e-09 Reference value :  1.84912e-09 Reference value :  1.85312e-09 Reference value :  1.85712e-09 Reference value :  1.86112e-09 Reference value :  1.86512e-09 Reference value :  1.86912e-09 Reference value :  1.87312e-09 Reference value :  1.87712e-09 Reference value :  1.88112e-09 Reference value :  1.88512e-09 Reference value :  1.88912e-09 Reference value :  1.89312e-09 Reference value :  1.89712e-09 Reference value :  1.90112e-09 Reference value :  1.90512e-09 Reference value :  1.90912e-09 Reference value :  1.91312e-09 Reference value :  1.91712e-09 Reference value :  1.92112e-09 Reference value :  1.92512e-09 Reference value :  1.92912e-09 Reference value :  1.93312e-09 Reference value :  1.93712e-09 Reference value :  1.94112e-09 Reference value :  1.94512e-09 Reference value :  1.94912e-09 Reference value :  1.95312e-09 Reference value :  1.95712e-09 Reference value :  1.96112e-09 Reference value :  1.96512e-09 Reference value :  1.96912e-09 Reference value :  1.97312e-09 Reference value :  1.97712e-09 Reference value :  1.98112e-09 Reference value :  1.98512e-09 Reference value :  1.98912e-09 Reference value :  1.99312e-09 Reference value :  1.99712e-09 Reference value :  2.00112e-09 Reference value :  2.00512e-09 Reference value :  2.00912e-09 Reference value :  2.01312e-09 Reference value :  2.01712e-09 Reference value :  2.02112e-09 Reference value :  2.02512e-09 Reference value :  2.02912e-09 Reference value :  2.03312e-09 Reference value :  2.03712e-09 Reference value :  2.04112e-09 Reference value :  2.04512e-09 Reference value :  2.04912e-09 Reference value :  2.05312e-09 Reference value :  2.05712e-09 Reference value :  2.06112e-09 Reference value :  2.06512e-09 Reference value :  2.06912e-09 Reference value :  2.07312e-09 Reference value :  2.07712e-09 Reference value :  2.08112e-09 Reference value :  2.08512e-09 Reference value :  2.08912e-09 Reference value :  2.09312e-09 Reference value :  2.09712e-09 Reference value :  2.10112e-09 Reference value :  2.10512e-09 Reference value :  2.10912e-09 Reference value :  2.11312e-09 Reference value :  2.11712e-09 Reference value :  2.12112e-09 Reference value :  2.12512e-09 Reference value :  2.12912e-09 Reference value :  2.13312e-09 Reference value :  2.13712e-09 Reference value :  2.14112e-09 Reference value :  2.14512e-09 Reference value :  2.14912e-09 Reference value :  2.15312e-09 Reference value :  2.15712e-09 Reference value :  2.16112e-09 Reference value :  2.16512e-09 Reference value :  2.16912e-09 Reference value :  2.17312e-09 Reference value :  2.17712e-09 Reference value :  2.18112e-09 Reference value :  2.18512e-09 Reference value :  2.18912e-09 Reference value :  2.19312e-09 Reference value :  2.19712e-09 Reference value :  2.20112e-09 Reference value :  2.20512e-09 Reference value :  2.20912e-09 Reference value :  2.21312e-09 Reference value :  2.21712e-09 Reference value :  2.22112e-09 Reference value :  2.22512e-09 Reference value :  2.22912e-09 Reference value :  2.23312e-09 Reference value :  2.23712e-09 Reference value :  2.24112e-09 Reference value :  2.24512e-09 Reference value :  2.24912e-09 Reference value :  2.25312e-09 Reference value :  2.25712e-09 Reference value :  2.26112e-09 Reference value :  2.26512e-09 Reference value :  2.26912e-09 Reference value :  2.27312e-09 Reference value :  2.27712e-09 Reference value :  2.28112e-09 Reference value :  2.28512e-09 Reference value :  2.28912e-09 Reference value :  2.29312e-09 Reference value :  2.29712e-09 Reference value :  2.30112e-09 Reference value :  2.30512e-09 Reference value :  2.30912e-09 Reference value :  2.31312e-09 Reference value :  2.31712e-09 Reference value :  2.32112e-09 Reference value :  2.32512e-09 Reference value :  2.32912e-09 Reference value :  2.33312e-09 Reference value :  2.33712e-09 Reference value :  2.34112e-09 Reference value :  2.34512e-09 Reference value :  2.34912e-09 Reference value :  2.35312e-09 Reference value :  2.35712e-09 Reference value :  2.36112e-09 Reference value :  2.36512e-09 Reference value :  2.36912e-09 Reference value :  2.37312e-09 Reference value :  2.37712e-09 Reference value :  2.38112e-09 Reference value :  2.38512e-09 Reference value :  2.38912e-09 Reference value :  2.39312e-09 Reference value :  2.39712e-09 Reference value :  2.40112e-09 Reference value :  2.40512e-09 Reference value :  2.40912e-09 Reference value :  2.41312e-09 Reference value :  2.41712e-09 Reference value :  2.42112e-09 Reference value :  2.42512e-09 Reference value :  2.42912e-09 Reference value :  2.43312e-09 Reference value :  2.43712e-09 Reference value :  2.44112e-09 Reference value :  2.44512e-09 Reference value :  2.44912e-09 Reference value :  2.45312e-09 Reference value :  2.45712e-09 Reference value :  2.46112e-09 Reference value :  2.46512e-09 Reference value :  2.46912e-09 Reference value :  2.47312e-09 Reference value :  2.47712e-09 Reference value :  2.48112e-09 Reference value :  2.48512e-09 Reference value :  2.48912e-09 Reference value :  2.49312e-09 Reference value :  2.49712e-09 Reference value :  2.50112e-09 Reference value :  2.50512e-09 Reference value :  2.50912e-09 Reference value :  2.51312e-09 Reference value :  2.51712e-09 Reference value :  2.52112e-09 Reference value :  2.52512e-09 Reference value :  2.52912e-09 Reference value :  2.53312e-09 Reference value :  2.53712e-09 Reference value :  2.54112e-09 Reference value :  2.54512e-09 Reference value :  2.54912e-09 Reference value :  2.55312e-09 Reference value :  2.55712e-09 Reference value :  2.56112e-09 Reference value :  2.56512e-09 Reference value :  2.56912e-09 Reference value :  2.57312e-09 Reference value :  2.57712e-09 Reference value :  2.58112e-09 Reference value :  2.58512e-09 Reference value :  2.58912e-09 Reference value :  2.59312e-09 Reference value :  2.59712e-09 Reference value :  2.60112e-09 Reference value :  2.60512e-09 Reference value :  2.60912e-09 Reference value :  2.61312e-09 Reference value :  2.61712e-09 Reference value :  2.62112e-09 Reference value :  2.62512e-09 Reference value :  2.62912e-09 Reference value :  2.63312e-09 Reference value :  2.63712e-09 Reference value :  2.64112e-09 Reference value :  2.64512e-09 Reference value :  2.64912e-09 Reference value :  2.65312e-09 Reference value :  2.65712e-09 Reference value :  2.66112e-09 Reference value :  2.66512e-09 Reference value :  2.66912e-09 Reference value :  2.67312e-09 Reference value :  2.67712e-09 Reference value :  2.68112e-09 Reference value :  2.68512e-09 Reference value :  2.68912e-09 Reference value :  2.69312e-09 Reference value :  2.69712e-09 Reference value :  2.70112e-09 Reference value :  2.70512e-09 Reference value :  2.70912e-09 Reference value :  2.71312e-09 Reference value :  2.71712e-09 Reference value :  2.72112e-09 Reference value :  2.72512e-09 Reference value :  2.72912e-09 Reference value :  2.73312e-09 Reference value :  2.73712e-09 Reference value :  2.74112e-09 Reference value :  2.74512e-09 Reference value :  2.74912e-09 Reference value :  2.75312e-09 Reference value :  2.75712e-09 Reference value :  2.76112e-09 Reference value :  2.76512e-09 Reference value :  2.76912e-09 Reference value :  2.77312e-09 Reference value :  2.77712e-09 Reference value :  2.78112e-09 Reference value :  2.78512e-09 Reference value :  2.78912e-09 Reference value :  2.79312e-09 Reference value :  2.79712e-09 Reference value :  2.80112e-09 Reference value :  2.80512e-09 Reference value :  2.80912e-09 Reference value :  2.81312e-09 Reference value :  2.81712e-09 Reference value :  2.82112e-09 Reference value :  2.82512e-09 Reference value :  2.82912e-09 Reference value :  2.83312e-09 Reference value :  2.83712e-09 Reference value :  2.84112e-09 Reference value :  2.84512e-09 Reference value :  2.84912e-09 Reference value :  2.85312e-09 Reference value :  2.85712e-09 Reference value :  2.86112e-09 Reference value :  2.86512e-09 Reference value :  2.86912e-09 Reference value :  2.87312e-09 Reference value :  2.87712e-09 Reference value :  2.88112e-09 Reference value :  2.88512e-09 Reference value :  2.88912e-09 Reference value :  2.89312e-09 Reference value :  2.89712e-09 Reference value :  2.90112e-09 Reference value :  2.90512e-09 Reference value :  2.90912e-09 Reference value :  2.91312e-09 Reference value :  2.91712e-09 Reference value :  2.92112e-09 Reference value :  2.92512e-09 Reference value :  2.92912e-09 Reference value :  2.93312e-09 Reference value :  2.93712e-09 Reference value :  2.94112e-09 Reference value :  2.94512e-09 Reference value :  2.94912e-09 Reference value :  2.95312e-09 Reference value :  2.95712e-09 Reference value :  2.96112e-09 Reference value :  2.96512e-09 Reference value :  2.96912e-09 Reference value :  2.97312e-09 Reference value :  2.97712e-09 Reference value :  2.98112e-09 Reference value :  2.98512e-09 Reference value :  2.98912e-09 Reference value :  2.99312e-09 Reference value :  2.99712e-09 Reference value :  3.00112e-09 Reference value :  3.00512e-09 Reference value :  3.00912e-09 Reference value :  3.01312e-09 Reference value :  3.01712e-09 Reference value :  3.02112e-09 Reference value :  3.02512e-09 Reference value :  3.02912e-09 Reference value :  3.03312e-09 Reference value :  3.03712e-09 Reference value :  3.04112e-09 Reference value :  3.04512e-09 Reference value :  3.04912e-09 Reference value :  3.05312e-09 Reference value :  3.05712e-09 Reference value :  3.06112e-09 Reference value :  3.06512e-09 Reference value :  3.06912e-09 Reference value :  3.07312e-09 Reference value :  3.07712e-09 Reference value :  3.08112e-09 Reference value :  3.08512e-09 Reference value :  3.08912e-09 Reference value :  3.09312e-09 Reference value :  3.09712e-09 Reference value :  3.10112e-09 Reference value :  3.10512e-09 Reference value :  3.10912e-09 Reference value :  3.11312e-09 Reference value :  3.11712e-09 Reference value :  3.12112e-09 Reference value :  3.12512e-09 Reference value :  3.12912e-09 Reference value :  3.13312e-09 Reference value :  3.13712e-09 Reference value :  3.14112e-09 Reference value :  3.14512e-09 Reference value :  3.14912e-09 Reference value :  3.15312e-09 Reference value :  3.15712e-09 Reference value :  3.16112e-09 Reference value :  3.16512e-09 Reference value :  3.16912e-09 Reference value :  3.17312e-09 Reference value :  3.17712e-09 Reference value :  3.18112e-09 Reference value :  3.18512e-09 Reference value :  3.18912e-09 Reference value :  3.19312e-09 Reference value :  3.19712e-09 Reference value :  3.20112e-09 Reference value :  3.20512e-09 Reference value :  3.20912e-09 Reference value :  3.21312e-09 Reference value :  3.21712e-09 Reference value :  3.22112e-09 Reference value :  3.22512e-09 Reference value :  3.22912e-09 Reference value :  3.23312e-09 Reference value :  3.23712e-09 Reference value :  3.24112e-09 Reference value :  3.24512e-09 Reference value :  3.24912e-09 Reference value :  3.25312e-09 Reference value :  3.25712e-09 Reference value :  3.26112e-09 Reference value :  3.26512e-09 Reference value :  3.26912e-09 Reference value :  3.27312e-09 Reference value :  3.27712e-09 Reference value :  3.28112e-09 Reference value :  3.28512e-09 Reference value :  3.28912e-09 Reference value :  3.29312e-09 Reference value :  3.29712e-09 Reference value :  3.30112e-09 Reference value :  3.30512e-09 Reference value :  3.30912e-09 Reference value :  3.31312e-09 Reference value :  3.31712e-09 Reference value :  3.32112e-09 Reference value :  3.32512e-09 Reference value :  3.32912e-09 Reference value :  3.33312e-09 Reference value :  3.33712e-09 Reference value :  3.34112e-09 Reference value :  3.34512e-09 Reference value :  3.34912e-09 Reference value :  3.35312e-09 Reference value :  3.35712e-09 Reference value :  3.36112e-09 Reference value :  3.36512e-09 Reference value :  3.36912e-09 Reference value :  3.37312e-09 Reference value :  3.37712e-09 Reference value :  3.38112e-09 Reference value :  3.38512e-09 Reference value :  3.38912e-09 Reference value :  3.39312e-09 Reference value :  3.39712e-09 Reference value :  3.40112e-09 Reference value :  3.40512e-09 Reference value :  3.40912e-09 Reference value :  3.41312e-09 Reference value :  3.41712e-09 Reference value :  3.42112e-09 Reference value :  3.42512e-09 Reference value :  3.42912e-09 Reference value :  3.43312e-09 Reference value :  3.43712e-09 Reference value :  3.44112e-09 Reference value :  3.44512e-09 Reference value :  3.44912e-09 Reference value :  3.45312e-09 Reference value :  3.45712e-09 Reference value :  3.46112e-09 Reference value :  3.46512e-09 Reference value :  3.46912e-09 Reference value :  3.47312e-09 Reference value :  3.47712e-09 Reference value :  3.48112e-09 Reference value :  3.48512e-09 Reference value :  3.48912e-09 Reference value :  3.49312e-09 Reference value :  3.49712e-09 Reference value :  3.50112e-09 Reference value :  3.50512e-09 Reference value :  3.50912e-09 Reference value :  3.51312e-09 Reference value :  3.51712e-09 Reference value :  3.52112e-09 Reference value :  3.52512e-09 Reference value :  3.52912e-09 Reference value :  3.53312e-09 Reference value :  3.53712e-09 Reference value :  3.54112e-09 Reference value :  3.54512e-09 Reference value :  3.54912e-09 Reference value :  3.55312e-09 Reference value :  3.55712e-09 Reference value :  3.56112e-09 Reference value :  3.56512e-09 Reference value :  3.56912e-09 Reference value :  3.57312e-09 Reference value :  3.57712e-09 Reference value :  3.58112e-09 Reference value :  3.58512e-09 Reference value :  3.58912e-09 Reference value :  3.59312e-09 Reference value :  3.59712e-09 Reference value :  3.60112e-09 Reference value :  3.60512e-09 Reference value :  3.60912e-09 Reference value :  3.61312e-09 Reference value :  3.61712e-09 Reference value :  3.62112e-09 Reference value :  3.62512e-09 Reference value :  3.62912e-09 Reference value :  3.63312e-09 Reference value :  3.63712e-09 Reference value :  3.64112e-09 Reference value :  3.64512e-09 Reference value :  3.64912e-09 Reference value :  3.65312e-09 Reference value :  3.65712e-09 Reference value :  3.66112e-09 Reference value :  3.66512e-09 Reference value :  3.66912e-09 Reference value :  3.67312e-09 Reference value :  3.67712e-09 Reference value :  3.68112e-09 Reference value :  3.68512e-09 Reference value :  3.68912e-09 Reference value :  3.69312e-09 Reference value :  3.69712e-09 Reference value :  3.70112e-09 Reference value :  3.70512e-09 Reference value :  3.70912e-09 Reference value :  3.71312e-09 Reference value :  3.71712e-09 Reference value :  3.72112e-09 Reference value :  3.72512e-09 Reference value :  3.72912e-09 Reference value :  3.73312e-09 Reference value :  3.73712e-09 Reference value :  3.74112e-09 Reference value :  3.74512e-09 Reference value :  3.74912e-09 Reference value :  3.75312e-09 Reference value :  3.75712e-09 Reference value :  3.76112e-09 Reference value :  3.76512e-09 Reference value :  3.76912e-09 Reference value :  3.77312e-09 Reference value :  3.77712e-09 Reference value :  3.78112e-09 Reference value :  3.78512e-09 Reference value :  3.78912e-09 Reference value :  3.79312e-09 Reference value :  3.79712e-09 Reference value :  3.80112e-09 Reference value :  3.80512e-09 Reference value :  3.80912e-09 Reference value :  3.81312e-09 Reference value :  3.81712e-09 Reference value :  3.82112e-09 Reference value :  3.82512e-09 Reference value :  3.82912e-09 Reference value :  3.83312e-09 Reference value :  3.83712e-09 Reference value :  3.84112e-09 Reference value :  3.84512e-09 Reference value :  3.84912e-09 Reference value :  3.85312e-09 Reference value :  3.85712e-09 Reference value :  3.86112e-09 Reference value :  3.86512e-09 Reference value :  3.86912e-09 Reference value :  3.87312e-09 Reference value :  3.87712e-09 Reference value :  3.88112e-09 Reference value :  3.88512e-09 Reference value :  3.88912e-09 Reference value :  3.89312e-09 Reference value :  3.89712e-09 Reference value :  3.90112e-09 Reference value :  3.90512e-09 Reference value :  3.90912e-09 Reference value :  3.91312e-09 Reference value :  3.91712e-09 Reference value :  3.92112e-09 Reference value :  3.92512e-09 Reference value :  3.92912e-09 Reference value :  3.93312e-09 Reference value :  3.93712e-09 Reference value :  3.94112e-09 Reference value :  3.94512e-09 Reference value :  3.94912e-09 Reference value :  3.95312e-09 Reference value :  3.95712e-09 Reference value :  3.96112e-09 Reference value :  3.96512e-09 Reference value :  3.96912e-09 Reference value :  3.97312e-09 Reference value :  3.97712e-09 Reference value :  3.98112e-09 Reference value :  3.98512e-09 Reference value :  3.98912e-09 Reference value :  3.99312e-09 Reference value :  3.99712e-09 Reference value :  4.00000e-09
No. of Data Rows : 1008
ngspice-32 done
