******
** ngspice-32 : Circuit level simulation program
** The U. C. Berkeley CAD Group
** Copyright 1985-1994, Regents of the University of California.
** Copyright 2001-2020, The ngspice team.
** Please get your ngspice manual from http://ngspice.sourceforge.net/docs.html
** Please file your bug-reports at http://ngspice.sourceforge.net/bugrep.html
** Creation Date: Wed May 27 14:15:43 UTC 2020
******

Circuit: *ripple carry adder

Doing analysis at TEMP = 27.000000 and TNOM = 27.000000

Warning: Ngate = 1e+17 is less than 1.E18cm^-3.
Warning: Ngate = 1e+17 is less than 1.E18cm^-3.
Warning: Ngate = 1e+17 is less than 1.E18cm^-3.
Warning: Ngate = 1e+17 is less than 1.E18cm^-3.
Warning: Ngate = 1e+17 is less than 1.E18cm^-3.
Warning: Ngate = 1e+17 is less than 1.E18cm^-3.
Warning: Ngate = 1e+17 is less than 1.E18cm^-3.
Warning: Ngate = 1e+17 is less than 1.E18cm^-3.
Warning: Ngate = 1e+17 is less than 1.E18cm^-3.
Warning: Ngate = 1e+17 is less than 1.E18cm^-3.
Warning: Ngate = 1e+17 is less than 1.E18cm^-3.
Warning: Ngate = 1e+17 is less than 1.E18cm^-3.
Warning: Ngate = 1e+17 is less than 1.E18cm^-3.
Warning: Ngate = 1e+17 is less than 1.E18cm^-3.
Warning: Ngate = 1e+17 is less than 1.E18cm^-3.
Warning: Ngate = 1e+17 is less than 1.E18cm^-3.
Warning: Ngate = 1e+17 is less than 1.E18cm^-3.
Warning: Ngate = 1e+17 is less than 1.E18cm^-3.
Warning: Ngate = 1e+17 is less than 1.E18cm^-3.
Warning: Ngate = 1e+17 is less than 1.E18cm^-3.
Warning: Ngate = 1e+17 is less than 1.E18cm^-3.
Warning: Ngate = 1e+17 is less than 1.E18cm^-3.
Warning: Ngate = 1e+17 is less than 1.E18cm^-3.
Warning: Ngate = 1e+17 is less than 1.E18cm^-3.
Warning: Ngate = 1e+17 is less than 1.E18cm^-3.
Warning: Ngate = 1e+17 is less than 1.E18cm^-3.
Warning: Ngate = 1e+17 is less than 1.E18cm^-3.
Warning: Ngate = 1e+17 is less than 1.E18cm^-3.
Warning: Ngate = 1e+17 is less than 1.E18cm^-3.
Warning: Ngate = 1e+17 is less than 1.E18cm^-3.
Warning: Ngate = 1e+17 is less than 1.E18cm^-3.
Warning: Ngate = 1e+17 is less than 1.E18cm^-3.
Warning: Ngate = 1e+17 is less than 1.E18cm^-3.
Warning: Ngate = 1e+17 is less than 1.E18cm^-3.
Warning: Ngate = 1e+17 is less than 1.E18cm^-3.
Warning: Ngate = 1e+17 is less than 1.E18cm^-3.
Warning: Ngate = 1e+17 is less than 1.E18cm^-3.
Warning: Ngate = 1e+17 is less than 1.E18cm^-3.
Warning: Ngate = 1e+17 is less than 1.E18cm^-3.
Warning: Ngate = 1e+17 is less than 1.E18cm^-3.
Warning: Ngate = 1e+17 is less than 1.E18cm^-3.
Warning: Ngate = 1e+17 is less than 1.E18cm^-3.
Warning: Ngate = 1e+17 is less than 1.E18cm^-3.
Warning: Ngate = 1e+17 is less than 1.E18cm^-3.
Warning: Ngate = 1e+17 is less than 1.E18cm^-3.
Warning: Ngate = 1e+17 is less than 1.E18cm^-3.
Warning: Ngate = 1e+17 is less than 1.E18cm^-3.
Warning: Ngate = 1e+17 is less than 1.E18cm^-3.
Warning: Ngate = 1e+17 is less than 1.E18cm^-3.
Warning: Ngate = 1e+17 is less than 1.E18cm^-3.
Warning: Ngate = 1e+17 is less than 1.E18cm^-3.
Warning: Ngate = 1e+17 is less than 1.E18cm^-3.
Warning: Ngate = 1e+17 is less than 1.E18cm^-3.
Warning: Ngate = 1e+17 is less than 1.E18cm^-3.
Warning: Ngate = 1e+17 is less than 1.E18cm^-3.
Warning: Ngate = 1e+17 is less than 1.E18cm^-3.
Warning: Ngate = 1e+17 is less than 1.E18cm^-3.
Warning: Ngate = 1e+17 is less than 1.E18cm^-3.
Warning: Ngate = 1e+17 is less than 1.E18cm^-3.
Warning: Ngate = 1e+17 is less than 1.E18cm^-3.
Warning: Ngate = 1e+17 is less than 1.E18cm^-3.
Warning: Ngate = 1e+17 is less than 1.E18cm^-3.
Warning: Ngate = 1e+17 is less than 1.E18cm^-3.
Warning: Ngate = 1e+17 is less than 1.E18cm^-3.
Warning: Ngate = 1e+17 is less than 1.E18cm^-3.
Warning: Ngate = 1e+17 is less than 1.E18cm^-3.
Warning: Ngate = 1e+17 is less than 1.E18cm^-3.
Warning: Ngate = 1e+17 is less than 1.E18cm^-3.
Warning: Ngate = 1e+17 is less than 1.E18cm^-3.
Warning: Ngate = 1e+17 is less than 1.E18cm^-3.
Warning: Ngate = 1e+17 is less than 1.E18cm^-3.
Warning: Ngate = 1e+17 is less than 1.E18cm^-3.
Warning: Ngate = 1e+17 is less than 1.E18cm^-3.
Warning: Ngate = 1e+17 is less than 1.E18cm^-3.
Warning: Ngate = 1e+17 is less than 1.E18cm^-3.
Warning: Ngate = 1e+17 is less than 1.E18cm^-3.
Warning: Ngate = 1e+17 is less than 1.E18cm^-3.
Warning: Ngate = 1e+17 is less than 1.E18cm^-3.
Warning: Ngate = 1e+17 is less than 1.E18cm^-3.
Warning: Ngate = 1e+17 is less than 1.E18cm^-3.
Warning: Ngate = 1e+17 is less than 1.E18cm^-3.
Warning: Ngate = 1e+17 is less than 1.E18cm^-3.
Warning: Ngate = 1e+17 is less than 1.E18cm^-3.
Warning: Ngate = 1e+17 is less than 1.E18cm^-3.
Warning: Ngate = 1e+17 is less than 1.E18cm^-3.
Warning: Ngate = 1e+17 is less than 1.E18cm^-3.
Warning: Ngate = 1e+17 is less than 1.E18cm^-3.
Warning: Ngate = 1e+17 is less than 1.E18cm^-3.
Warning: Ngate = 1e+17 is less than 1.E18cm^-3.
Warning: Ngate = 1e+17 is less than 1.E18cm^-3.
Warning: Ngate = 1e+17 is less than 1.E18cm^-3.
Warning: Ngate = 1e+17 is less than 1.E18cm^-3.
Warning: Ngate = 1e+17 is less than 1.E18cm^-3.
Warning: Ngate = 1e+17 is less than 1.E18cm^-3.
Warning: Ngate = 1e+17 is less than 1.E18cm^-3.
Warning: Ngate = 1e+17 is less than 1.E18cm^-3.
Warning: Ngate = 1e+17 is less than 1.E18cm^-3.
Warning: Ngate = 1e+17 is less than 1.E18cm^-3.
Warning: Ngate = 1e+17 is less than 1.E18cm^-3.
Warning: Ngate = 1e+17 is less than 1.E18cm^-3.
Warning: Ngate = 1e+17 is less than 1.E18cm^-3.
Warning: Ngate = 1e+17 is less than 1.E18cm^-3.
Warning: Ngate = 1e+17 is less than 1.E18cm^-3.
Warning: Ngate = 1e+17 is less than 1.E18cm^-3.
Warning: Ngate = 1e+17 is less than 1.E18cm^-3.
Warning: Ngate = 1e+17 is less than 1.E18cm^-3.
Warning: Ngate = 1e+17 is less than 1.E18cm^-3.
Warning: Ngate = 1e+17 is less than 1.E18cm^-3.
Warning: Ngate = 1e+17 is less than 1.E18cm^-3.
Warning: Ngate = 1e+17 is less than 1.E18cm^-3.
Warning: Ngate = 1e+17 is less than 1.E18cm^-3.
Warning: Ngate = 1e+17 is less than 1.E18cm^-3.

Initial Transient Solution
--------------------------

Node                                   Voltage
----                                   -------
xrca.xfa0.nodecon                     0.998195
b0                                           1
xrca.xfa0.node4                       0.724673
xrca.xfa0.1                           0.999098
vcc                                          1
a0                                           0
xrca.xfa0.5                        0.000851085
xrca.xfa0.4                           0.999098
xrca.xfa0.2                           0.997778
xrca.xfa0.3                          0.0046458
xrca.xfa0.nodeson                    0.0093051
xrca.xfa0.9                           0.329602
xrca.xfa0.7                         6.5683e-07
xrca.xfa0.8                           0.264941
xrca.xfa0.6                         0.00431425
xrca.cout0                          0.00501054
s0                                    0.998946
xrca.xfa1.nodecon                     0.999995
b1                                           0
xrca.xfa1.node4                       0.168005
xrca.xfa1.1                           0.999998
a1                                           0
xrca.xfa1.5                           0.156566
xrca.xfa1.4                           0.999996
xrca.xfa1.2                           0.999928
xrca.xfa1.3                           0.699728
xrca.xfa1.nodeson                     0.999511
xrca.xfa1.9                           0.999789
xrca.xfa1.7                          0.0372522
xrca.xfa1.8                            0.99965
xrca.xfa1.6                           0.200764
xrca.cout1                          0.00482844
s1                                  0.00487417
xrca.xfa2.nodecon                     0.999995
b2                                           0
xrca.xfa2.node4                       0.168005
xrca.xfa2.1                           0.999998
a2                                           0
xrca.xfa2.5                           0.156469
xrca.xfa2.4                           0.999996
xrca.xfa2.2                           0.999928
xrca.xfa2.3                           0.699764
xrca.xfa2.nodeson                     0.999512
xrca.xfa2.9                           0.999789
xrca.xfa2.7                          0.0372376
xrca.xfa2.8                           0.999651
xrca.xfa2.6                           0.200655
xrca.cout2                          0.00482844
s2                                   0.0048741
xrca.xfa3.nodecon                     0.999995
b3                                           0
xrca.xfa3.node4                       0.168005
xrca.xfa3.1                           0.999998
a3                                           0
xrca.xfa3.5                           0.156469
xrca.xfa3.4                           0.999996
xrca.xfa3.2                           0.999928
xrca.xfa3.3                           0.699764
xrca.xfa3.nodeson                     0.999512
xrca.xfa3.9                           0.999789
xrca.xfa3.7                          0.0372376
xrca.xfa3.8                           0.999651
xrca.xfa3.6                           0.200655
cout3                               0.00482579
s3                                   0.0048741
v_dd#branch                       -6.27163e-06
vinb0#branch                      -7.49545e-10
vinb1#branch                       5.35308e-10
vinb2#branch                       5.35309e-10
vinb3#branch                       5.35309e-10
vina0#branch                       3.40689e-10
vina1#branch                       5.18078e-10
vina2#branch                       5.18079e-10
vina3#branch                       5.18079e-10

 Reference value :  0.00000e+00 Reference value :  6.92800e-12 Reference value :  1.25280e-11 Reference value :  2.13280e-11 Reference value :  3.02280e-11 Reference value :  3.93280e-11 Reference value :  4.80280e-11 Reference value :  5.68280e-11 Reference value :  6.52280e-11 Reference value :  7.30280e-11 Reference value :  8.10280e-11 Reference value :  9.03280e-11 Reference value :  1.00328e-10 Reference value :  1.09828e-10 Reference value :  1.19628e-10 Reference value :  1.29928e-10 Reference value :  1.40128e-10 Reference value :  1.51428e-10 Reference value :  1.60828e-10 Reference value :  1.70528e-10 Reference value :  1.80428e-10 Reference value :  1.90428e-10 Reference value :  2.00628e-10 Reference value :  2.10628e-10 Reference value :  2.20928e-10 Reference value :  2.30328e-10 Reference value :  2.42128e-10 Reference value :  2.52428e-10 Reference value :  2.62028e-10 Reference value :  2.72328e-10 Reference value :  2.82528e-10 Reference value :  2.92828e-10 Reference value :  3.03328e-10 Reference value :  3.13728e-10 Reference value :  3.24128e-10 Reference value :  3.33528e-10 Reference value :  3.43528e-10 Reference value :  3.53828e-10 Reference value :  3.64728e-10 Reference value :  3.75528e-10 Reference value :  3.85328e-10 Reference value :  3.94628e-10 Reference value :  4.02328e-10 Reference value :  4.08928e-10 Reference value :  4.16028e-10 Reference value :  4.21728e-10 Reference value :  4.27628e-10 Reference value :  4.34228e-10 Reference value :  4.42528e-10 Reference value :  4.52728e-10 Reference value :  4.61628e-10 Reference value :  4.68128e-10 Reference value :  4.76728e-10 Reference value :  4.84228e-10 Reference value :  4.95228e-10 Reference value :  5.03728e-10 Reference value :  5.09528e-10 Reference value :  5.15528e-10 Reference value :  5.22028e-10 Reference value :  5.29128e-10 Reference value :  5.38128e-10 Reference value :  5.47828e-10 Reference value :  5.56528e-10 Reference value :  5.64628e-10 Reference value :  5.73828e-10 Reference value :  5.83428e-10 Reference value :  5.92928e-10 Reference value :  6.02828e-10 Reference value :  6.12828e-10 Reference value :  6.23528e-10 Reference value :  6.33128e-10 Reference value :  6.43228e-10 Reference value :  6.52128e-10 Reference value :  6.60028e-10 Reference value :  6.68828e-10 Reference value :  6.78228e-10 Reference value :  6.85128e-10 Reference value :  6.93028e-10 Reference value :  6.98728e-10 Reference value :  7.04528e-10 Reference value :  7.12428e-10 Reference value :  7.21128e-10 Reference value :  7.31928e-10 Reference value :  7.41328e-10 Reference value :  7.51628e-10 Reference value :  7.60828e-10 Reference value :  7.69128e-10 Reference value :  7.76128e-10 Reference value :  7.82628e-10 Reference value :  7.92428e-10 Reference value :  8.03128e-10 Reference value :  8.13328e-10
No. of Data Rows : 8208
ngspice-32 done
